SandboxData_C2S7_20210305/C2S7N06473/scenario_004/case.raw
0,100.0,33,0,1,60.0
GRID OPTIMIZATION COMPETITION CHALLENGE 2
INPUT DATA FILES ARE RAW JSON CON
1,'23001010300',138.0,1,14,1,1,1.02360141,-14.064546,1.1,0.9,1.1,0.9
2,'23001010700',345.0,1,14,1,1,1.03742588,-13.113681,1.1,0.9,1.1,0.9
3,'23001010700',138.0,1,14,1,1,1.02592146,-14.141642,1.1,0.9,1.1,0.9
4,'23001010800',138.0,1,14,1,1,1.02409112,-14.087917,1.1,0.9,1.1,0.9
5,'23001020100',138.0,1,14,1,1,1.02314878,-14.009034,1.1,0.9,1.1,0.9
6,'23001020200',138.0,1,14,1,1,1.02337229,-14.070185,1.1,0.9,1.1,0.9
7,'23001020300',138.0,1,14,1,1,1.02274752,-13.866435,1.1,0.9,1.1,0.9
8,'23001020400',138.0,1,14,1,1,1.02274084,-13.94403,1.1,0.9,1.1,0.9
9,'23001020600',138.0,1,14,1,1,1.02089655,-14.261501,1.1,0.9,1.1,0.9
10,'23001020800',138.0,1,14,1,1,1.02324426,-13.534409,1.1,0.9,1.1,0.9
11,'23001020900',138.0,1,14,1,1,1.0235815,-14.220584,1.1,0.9,1.1,0.9
12,'23001030100',138.0,1,14,1,1,1.02006888,-14.440067,1.1,0.9,1.1,0.9
13,'23001030200',138.0,1,14,1,1,1.01952291,-14.508447,1.1,0.9,1.1,0.9
14,'23001040000',138.0,1,14,1,1,1.02058005,-14.476687,1.1,0.9,1.1,0.9
15,'23001042000',138.0,1,14,1,1,1.02570736,-14.691262,1.1,0.9,1.1,0.9
16,'23001046000',138.0,1,14,1,1,1.02427649,-14.433228,1.1,0.9,1.1,0.9
17,'23003950600',138.0,1,14,1,1,1.04398346,-30.359276,1.1,0.9,1.1,0.9
18,'23003950700',138.0,1,14,1,1,1.0482403,-29.777668,1.1,0.9,1.1,0.9
19,'23003950900',138.0,1,14,1,1,1.04674292,-29.562517,1.1,0.9,1.1,0.9
20,'23003952000',230.0,1,14,1,1,1.04057872,-27.421316,1.1,0.9,1.1,0.9
21,'23003952500',138.0,1,14,1,1,1.03984296,-28.402961,1.1,0.9,1.1,0.9
22,'23003952700',138.0,1,14,1,1,1.04077208,-28.062956,1.1,0.9,1.1,0.9
23,'23005000100',138.0,1,14,1,1,1.02002609,-13.138456,1.1,0.9,1.1,0.9
24,'23005001800',138.0,1,14,1,1,1.02088737,-13.301875,1.1,0.9,1.1,0.9
25,'23005002102',138.0,1,14,1,1,1.01899433,-13.486512,1.1,0.9,1.1,0.9
26,'23005002200',138.0,1,14,1,1,1.0204885,-13.342693,1.1,0.9,1.1,0.9
27,'23005002300',345.0,1,14,1,1,1.03418171,-12.581053,1.1,0.9,1.1,0.9
28,'23005002300',138.0,1,14,1,1,1.02175295,-13.215611,1.1,0.9,1.1,0.9
29,'23005002400',138.0,1,14,1,1,1.01772583,-12.731403,1.1,0.9,1.1,0.9
30,'23005002501',345.0,1,14,1,1,1.03560555,-12.779757,1.1,0.9,1.1,0.9
31,'23005002600',138.0,1,14,1,1,0.99298018,-10.696446,1.1,0.9,1.1,0.9
32,'23005002800',138.0,1,14,1,1,0.99456972,-10.520782,1.1,0.9,1.1,0.9
33,'23005002900',138.0,1,14,1,1,0.99613208,-10.34589,1.1,0.9,1.1,0.9
34,'23005002900',230.0,1,14,1,1,1.0061003,-8.866976,1.1,0.9,1.1,0.9
35,'23005003000',138.0,1,14,1,1,1.00333738,-8.815758,1.1,0.9,1.1,0.9
36,'23005003100',138.0,1,14,1,1,1.00616348,-10.564261,1.1,0.9,1.1,0.9
37,'23005003400',138.0,1,14,1,1,1.0073384,-10.912837,1.1,0.9,1.1,0.9
38,'23005003500',138.0,1,14,1,1,1.00613117,-10.569568,1.1,0.9,1.1,0.9
39,'23005003701',138.0,1,14,1,1,1.00988793,-11.53992,1.1,0.9,1.1,0.9
40,'23005004001',138.0,1,14,1,1,1.00599527,-8.358662,1.1,0.9,1.1,0.9
41,'23005004002',138.0,1,14,1,1,1.00496078,-8.563407,1.1,0.9,1.1,0.9
42,'23005004502',138.0,1,14,1,1,1.02194417,-14.467905,1.1,0.9,1.1,0.9
43,'23005004701',138.0,1,14,1,1,1.02111661,-14.487685,1.1,0.9,1.1,0.9
44,'23005004702',138.0,1,14,1,1,1.02212131,-14.366601,1.1,0.9,1.1,0.9
45,'23005004801',138.0,1,14,1,1,1.01977253,-14.643386,1.1,0.9,1.1,0.9
46,'23005011100',138.0,1,14,1,1,1.01972485,-15.675236,1.1,0.9,1.1,0.9
47,'23005011100',345.0,1,14,1,1,1.03347397,-13.85194,1.1,0.9,1.1,0.9
48,'23005011202',138.0,1,14,1,1,1.01856685,-15.804428,1.1,0.9,1.1,0.9
49,'23005011500',138.0,1,14,1,1,1.02328444,-14.339458,1.1,0.9,1.1,0.9
50,'23005017002',138.0,1,14,1,1,1.00097179,-9.018933,1.1,0.9,1.1,0.9
51,'23005017101',138.0,1,14,1,1,1.02089822,-14.953613,1.1,0.9,1.1,0.9
52,'23005017102',138.0,1,14,1,1,1.02040124,-15.227956,1.1,0.9,1.1,0.9
53,'23005017301',138.0,1,14,1,1,1.0037446,-9.309369,1.1,0.9,1.1,0.9
54,'23005017301',230.0,1,14,1,1,1.00697327,-8.9303,1.1,0.9,1.1,0.9
55,'23007971400',138.0,1,14,1,1,1.03651023,-14.348778,1.1,0.9,1.1,0.9
56,'23009965300',138.0,1,14,1,1,1.02228904,-16.930714,1.1,0.9,1.1,0.9
57,'23009965503',138.0,1,14,1,1,1.01277626,-19.014413,1.1,0.9,1.1,0.9
58,'23009965504',138.0,1,14,1,1,1.01527703,-18.728826,1.1,0.9,1.1,0.9
59,'23009965900',138.0,1,14,1,1,1.00592613,-18.788225,1.1,0.9,1.1,0.9
60,'23011010200',138.0,1,14,1,1,1.01312792,-16.511513,1.1,0.9,1.1,0.9
61,'23011010600',138.0,1,14,1,1,1.0229466,-18.338962,1.1,0.9,1.1,0.9
62,'23011019000',138.0,1,14,1,1,1.02526486,-18.662037,1.1,0.9,1.1,0.9
63,'23011021000',138.0,1,14,1,1,1.01784587,-28.778223,1.1,0.9,1.1,0.9
64,'23011022000',138.0,1,14,1,1,1.01614964,-29.151336,1.1,0.9,1.1,0.9
65,'23011023001',138.0,1,14,1,1,1.01509857,-29.418543,1.1,0.9,1.1,0.9
66,'23011023002',138.0,1,14,1,1,1.01486552,-29.523629,1.1,0.9,1.1,0.9
67,'23011024101',138.0,1,14,1,1,1.01576245,-30.568641,1.1,0.9,1.1,0.9
68,'23011024102',138.0,1,14,1,1,1.01479411,-30.68219,1.1,0.9,1.1,0.9
69,'23011024200',138.0,1,14,1,1,1.01381743,-30.792795,1.1,0.9,1.1,0.9
70,'23013970200',138.0,1,14,1,1,1.00760508,-18.150499,1.1,0.9,1.1,0.9
71,'23013970400',138.0,1,14,1,1,1.00662982,-18.119694,1.1,0.9,1.1,0.9
72,'23013970500',138.0,1,14,1,1,1.00616109,-18.272822,1.1,0.9,1.1,0.9
73,'23013970700',138.0,1,14,1,1,1.00522816,-18.332122,1.1,0.9,1.1,0.9
74,'23015975100',138.0,1,14,1,1,1.02404237,-18.567045,1.1,0.9,1.1,0.9
75,'23015975200',138.0,1,14,1,1,1.0081557,-17.789593,1.1,0.9,1.1,0.9
76,'23015975300',138.0,1,14,1,1,1.00943911,-17.528164,1.1,0.9,1.1,0.9
77,'23015975400',138.0,1,14,1,1,1.01092052,-17.225162,1.1,0.9,1.1,0.9
78,'23015975500',138.0,1,14,1,1,1.01248229,-16.907399,1.1,0.9,1.1,0.9
79,'23015975600',138.0,1,14,1,1,1.00968432,-17.455506,1.1,0.9,1.1,0.9
80,'23015975700',138.0,1,14,1,1,1.01049674,-17.278727,1.1,0.9,1.1,0.9
81,'23015975800',138.0,1,14,1,1,1.01130438,-17.097729,1.1,0.9,1.1,0.9
82,'23015976200',138.0,1,14,1,1,1.01238656,-16.885151,1.1,0.9,1.1,0.9
83,'23017965100',138.0,1,14,1,1,1.03274333,-18.741658,1.1,0.9,1.1,0.9
84,'23017965400',138.0,1,14,1,1,1.04003298,-15.148241,1.1,0.9,1.1,0.9
85,'23017965500',138.0,1,14,1,1,1.04327404,-13.599396,1.1,0.9,1.1,0.9
86,'23017965500',345.0,1,14,1,1,1.04609573,-12.328513,1.1,0.9,1.1,0.9
87,'23017965700',138.0,1,14,1,1,1.03382194,-14.536195,1.1,0.9,1.1,0.9
88,'23017965800',138.0,1,14,1,1,1.0310415,-14.905525,1.1,0.9,1.1,0.9
89,'23017966100',138.0,1,14,1,1,1.02859557,-15.19777,1.1,0.9,1.1,0.9
90,'23017966200',138.0,1,14,1,1,1.02693129,-15.374305,1.1,0.9,1.1,0.9
91,'23017966500',138.0,1,14,1,1,1.02721465,-15.313103,1.1,0.9,1.1,0.9
92,'23019000200',138.0,1,14,1,1,1.02447438,-17.692893,1.1,0.9,1.1,0.9
93,'23019000300',138.0,1,14,1,1,1.0249896,-17.566507,1.1,0.9,1.1,0.9
94,'23019000400',138.0,1,14,1,1,1.0244962,-17.725003,1.1,0.9,1.1,0.9
95,'23019000500',138.0,1,14,1,1,1.02459025,-17.743715,1.1,0.9,1.1,0.9
96,'23019000700',345.0,1,14,1,1,1.03574312,-14.92325,1.1,0.9,1.1,0.9
97,'23019000700',138.0,1,14,1,1,1.02487409,-17.767173,1.1,0.9,1.1,0.9
98,'23019002000',138.0,1,14,1,1,1.01987267,-19.495882,1.1,0.9,1.1,0.9
99,'23019005000',138.0,1,14,1,1,1.02617061,-17.592839,1.1,0.9,1.1,0.9
100,'23019007200',138.0,1,14,1,1,1.02528465,-19.410517,1.1,0.9,1.1,0.9
101,'23019009000',138.0,1,14,1,1,1.02258599,-17.827931,1.1,0.9,1.1,0.9
102,'23019010000',138.0,1,14,1,1,1.0238508,-18.07364,1.1,0.9,1.1,0.9
103,'23019011000',138.0,1,14,1,1,1.02326834,-18.391497,1.1,0.9,1.1,0.9
104,'23019012500',138.0,1,14,1,1,1.0233413,-18.669567,1.1,0.9,1.1,0.9
105,'23019015000',138.0,1,14,1,1,0.97875112,-32.371699,1.1,0.9,1.1,0.9
106,'23019020500',138.0,1,14,1,1,0.97836673,-32.524213,1.1,0.9,1.1,0.9
107,'23019027000',138.0,1,14,1,1,1.03695893,-25.158836,1.1,0.9,1.1,0.9
108,'23019029000',138.0,1,14,1,1,1.04647374,-25.182382,1.1,0.9,1.1,0.9
109,'23019030000',138.0,1,14,1,1,1.04299879,-25.119822,1.1,0.9,1.1,0.9
110,'23019031000',138.0,1,14,1,1,1.04064488,-25.645573,1.1,0.9,1.1,0.9
111,'23019031100',138.0,1,14,1,1,1.02362883,-17.714012,1.1,0.9,1.1,0.9
112,'23019031200',138.0,1,14,1,1,0.97828573,-32.523582,1.1,0.9,1.1,0.9
113,'23021960302',138.0,1,14,1,1,1.04736829,-25.217948,1.1,0.9,1.1,0.9
114,'23021960700',138.0,1,14,1,1,0.9880349,-31.210334,1.1,0.9,1.1,0.9
115,'23021960800',138.0,1,14,1,1,1.03074741,-26.834007,1.1,0.9,1.1,0.9
116,'23021960900',138.0,1,14,1,1,1.03464782,-26.3797,1.1,0.9,1.1,0.9
117,'23023970500',138.0,1,14,1,1,1.0167259,-16.155028,1.1,0.9,1.1,0.9
118,'23023970600',138.0,1,14,1,1,1.01644623,-16.161351,1.1,0.9,1.1,0.9
119,'23025965700',138.0,1,14,1,1,0.97893727,-32.15776,1.1,0.9,1.1,0.9
120,'23025965900',138.0,1,14,1,1,0.979397,-31.836618,1.1,0.9,1.1,0.9
121,'23025966000',138.0,1,14,1,1,1.01296067,-26.930654,1.1,0.9,1.1,0.9
122,'23025966500',138.0,1,14,1,1,0.98497206,-30.621832,1.1,0.9,1.1,0.9
123,'23025966600',138.0,1,14,1,1,0.98227543,-31.182344,1.1,0.9,1.1,0.9
124,'23025966700',138.0,1,14,1,1,0.98228258,-31.155614,1.1,0.9,1.1,0.9
125,'23025966800',138.0,1,14,1,1,1.01936114,-30.13904,1.1,0.9,1.1,0.9
126,'23025966900',138.0,1,14,1,1,0.98295128,-30.97083,1.1,0.9,1.1,0.9
127,'23027042000',345.0,1,14,1,1,1.0318352,-15.383951,1.1,0.9,1.1,0.9
128,'23027042000',138.0,1,14,1,1,1.02451348,-16.33409,1.1,0.9,1.1,0.9
129,'23027043000',138.0,1,14,1,1,1.01570451,-17.3131,1.1,0.9,1.1,0.9
130,'23027044000',138.0,1,14,1,1,1.0111872,-17.797199,1.1,0.9,1.1,0.9
131,'23027046001',138.0,1,14,1,1,1.02755201,-18.774802,1.1,0.9,1.1,0.9
132,'23027046002',138.0,1,14,1,1,1.02451587,-18.801839,1.1,0.9,1.1,0.9
133,'23029955400',138.0,1,14,1,1,1.03046966,-30.461851,1.1,0.9,1.1,0.9
134,'23029955800',138.0,1,14,1,1,1.02645814,-31.383302,1.1,0.9,1.1,0.9
135,'23029956300',138.0,1,14,1,1,1.02458525,-31.620115,1.1,0.9,1.1,0.9
136,'23031005200',138.0,1,14,1,1,1.00153399,-10.157237,1.1,0.9,1.1,0.9
137,'23031005300',138.0,1,14,1,1,1.00180423,-10.374286,1.1,0.9,1.1,0.9
138,'23031020000',138.0,1,14,1,1,1.00316858,-9.251387,1.1,0.9,1.1,0.9
139,'23031021000',138.0,1,14,1,1,1.00226319,-9.736901,1.1,0.9,1.1,0.9
140,'23031023500',138.0,1,14,1,1,1.00160873,-11.137188,1.1,0.9,1.1,0.9
141,'23031024000',138.0,1,14,1,1,1.00132358,-10.435289,1.1,0.9,1.1,0.9
142,'23031025100',138.0,1,14,1,1,1.00351286,-10.363221,1.1,0.9,1.1,0.9
143,'23031025202',138.0,1,14,1,1,1.00141263,-10.484482,1.1,0.9,1.1,0.9
144,'23031025300',138.0,1,14,1,1,1.00225806,-10.519067,1.1,0.9,1.1,0.9
145,'23031027000',138.0,1,14,1,1,1.00370359,-10.550111,1.1,0.9,1.1,0.9
146,'23031028002',138.0,1,14,1,1,1.00551879,-10.543544,1.1,0.9,1.1,0.9
147,'23031030201',138.0,1,14,1,1,1.01585889,-11.372683,1.1,0.9,1.1,0.9
148,'23031030202',138.0,1,14,1,1,1.01675987,-11.268064,1.1,0.9,1.1,0.9
149,'23031030300',138.0,1,14,1,1,1.01919496,-10.983302,1.1,0.9,1.1,0.9
150,'23031034001',138.0,1,14,1,1,1.00908267,-10.365648,1.1,0.9,1.1,0.9
151,'23031036001',138.0,1,14,1,1,1.0193367,-9.624714,1.1,0.9,1.1,0.9
152,'23031037000',138.0,1,14,1,1,1.0380373,-8.815474,1.1,0.9,1.1,0.9
153,'23031038001',138.0,1,14,1,1,1.02395678,-9.240071,1.1,0.9,1.1,0.9
154,'25001011002',138.0,1,16,1,1,1.03234899,-13.452735,1.1,0.9,1.1,0.9
155,'25001012001',138.0,1,16,1,1,1.03481662,-13.188506,1.1,0.9,1.1,0.9
156,'25001012602',138.0,1,16,1,1,1.04117525,-12.547787,1.1,0.9,1.1,0.9
157,'25001013400',138.0,1,16,1,1,1.02670407,-12.025517,1.1,0.9,1.1,0.9
158,'25001013500',138.0,1,16,1,1,1.02333987,-12.248562,1.1,0.9,1.1,0.9
159,'25001013600',138.0,1,16,1,1,1.02142715,-12.343623,1.1,0.9,1.1,0.9
160,'25001013700',345.0,1,16,1,1,1.02488589,-10.178627,1.1,0.9,1.1,0.9
161,'25001013700',138.0,1,16,1,1,1.01991057,-11.312754,1.1,0.9,1.1,0.9
162,'25001013800',138.0,1,16,1,1,1.02592754,-11.619296,1.1,0.9,1.1,0.9
163,'25001014100',138.0,1,16,1,1,1.02144754,-12.156012,1.1,0.9,1.1,0.9
164,'25001014500',138.0,1,16,1,1,1.01639736,-12.992988,1.1,0.9,1.1,0.9
165,'25001014600',138.0,1,16,1,1,1.01589918,-13.058282,1.1,0.9,1.1,0.9
166,'25001014700',138.0,1,16,1,1,1.01551557,-13.107464,1.1,0.9,1.1,0.9
167,'25001014800',138.0,1,16,1,1,1.01522982,-13.142895,1.1,0.9,1.1,0.9
168,'25001014900',138.0,1,16,1,1,1.0111233,-13.096183,1.1,0.9,1.1,0.9
169,'25001015100',138.0,1,16,1,1,1.01736653,-12.863553,1.1,0.9,1.1,0.9
170,'25001015300',138.0,1,16,1,1,1.04165387,-12.494027,1.1,0.9,1.1,0.9
171,'25001015300',345.0,1,16,1,1,1.01465619,-10.735194,1.1,0.9,1.1,0.9
172,'25003900100',138.0,1,16,1,1,1.02678061,-12.966387,1.1,0.9,1.1,0.9
173,'25003900200',138.0,1,16,1,1,1.02663898,-12.984517,1.1,0.9,1.1,0.9
174,'25003900300',138.0,1,16,1,1,1.02656567,-12.993957,1.1,0.9,1.1,0.9
175,'25003900800',138.0,1,16,1,1,1.02561462,-13.407718,1.1,0.9,1.1,0.9
176,'25003913100',138.0,1,16,1,1,1.02414894,-14.100649,1.1,0.9,1.1,0.9
177,'25003914100',138.0,1,16,1,1,0.95635271,-16.917805,1.1,0.9,1.1,0.9
178,'25003920101',138.0,1,16,1,1,1.01403475,-11.395669,1.1,0.9,1.1,0.9
179,'25003921300',138.0,1,16,1,1,1.01875925,-10.843578,1.1,0.9,1.1,0.9
180,'25003921500',138.0,1,16,1,1,1.01578403,-11.193996,1.1,0.9,1.1,0.9
181,'25003935300',138.0,1,16,1,1,1.0172689,-11.019974,1.1,0.9,1.1,0.9
182,'25005600202',138.0,1,16,1,1,1.01491284,-9.898191,1.1,0.9,1.1,0.9
183,'25005610100',138.0,1,16,1,1,1.00743902,-9.406554,1.1,0.9,1.1,0.9
184,'25005610202',138.0,1,16,1,1,1.00813854,-9.324225,1.1,0.9,1.1,0.9
185,'25005610203',138.0,1,16,1,1,1.01350498,-10.163794,1.1,0.9,1.1,0.9
186,'25005610204',138.0,1,16,1,1,1.01284218,-10.270319,1.1,0.9,1.1,0.9
187,'25005611101',138.0,1,16,1,1,1.01529145,-9.901055,1.1,0.9,1.1,0.9
188,'25005611102',138.0,1,16,1,1,1.01928413,-8.161792,1.1,0.9,1.1,0.9
189,'25005611202',138.0,1,16,1,1,1.00970602,-9.13722,1.1,0.9,1.1,0.9
190,'25005612100',138.0,1,16,1,1,1.01629066,-9.690488,1.1,0.9,1.1,0.9
191,'25005612200',138.0,1,16,1,1,1.01742327,-9.017733,1.1,0.9,1.1,0.9
192,'25005613100',345.0,1,16,1,1,1.02619672,-8.292768,1.1,0.9,1.1,0.9
193,'25005613100',138.0,1,16,1,1,1.01754951,-9.580666,1.1,0.9,1.1,0.9
194,'25005613300',138.0,1,16,1,1,1.02055728,-8.016768,1.1,0.9,1.1,0.9
195,'25005613400',138.0,1,16,1,1,1.02145386,-7.910584,1.1,0.9,1.1,0.9
196,'25005613700',138.0,1,16,1,1,1.02046204,-8.008509,1.1,0.9,1.1,0.9
197,'25005613902',138.0,1,16,1,1,1.02272975,-7.756219,1.1,0.9,1.1,0.9
198,'25005617101',138.0,1,16,1,1,1.0175426,-9.555535,1.1,0.9,1.1,0.9
199,'25005630102',138.0,1,16,1,1,1.0018189,-5.45177,1.1,0.9,1.1,0.9
200,'25005630300',138.0,1,16,1,1,1.00261891,-5.357973,1.1,0.9,1.1,0.9
...
0 / END OF BUS DATA BEGIN LOAD DATA
3065,'NJ',1,24,1,74.25,20.092,0.0,0.0,0.0,0.0,1,1,0
3120,'PA',1,24,1,74.25,22.325,0.0,0.0,0.0,0.0,1,1,0
3126,'PA',1,24,1,96.525,20.929,0.0,0.0,0.0,0.0,1,1,0
3365,'HO',1,52,1,74.25,27.225,0.0,0.0,0.0,0.0,1,1,0
10001,'10',1,14,2,6.633,1.824,0.0,0.0,0.0,0.0,1,1,0
10001,'20',1,14,2,6.633,1.824,0.0,0.0,0.0,0.0,1,1,0
10003,'10',1,14,2,30.997,8.524,0.0,0.0,0.0,0.0,1,1,0
10003,'1A',1,14,2,46.134,12.687,0.0,0.0,0.0,0.0,1,1,0
10004,'1A',1,14,2,3.683,1.013,0.0,0.0,0.0,0.0,1,1,0
10005,'10',1,14,2,7.524,2.069,0.0,0.0,0.0,0.0,1,1,0
10005,'20',1,14,2,7.524,2.069,0.0,0.0,0.0,0.0,1,1,0
10006,'1A',1,14,2,8.514,2.341,0.0,0.0,0.0,0.0,1,1,0
10007,'10',1,14,2,9.207,2.532,0.0,0.0,0.0,0.0,1,1,0
10007,'20',1,14,2,9.207,2.532,0.0,0.0,0.0,0.0,1,1,0
10008,'10',1,14,2,4.752,1.307,0.0,0.0,0.0,0.0,1,1,0
10008,'20',1,14,2,4.752,1.307,0.0,0.0,0.0,0.0,1,1,0
10009,'10',1,14,2,6.534,1.797,0.0,0.0,0.0,0.0,1,1,0
10009,'20',1,14,2,6.534,1.797,0.0,0.0,0.0,0.0,1,1,0
10010,'10',1,14,2,16.038,4.41,0.0,0.0,0.0,0.0,1,1,0
10010,'20',1,14,2,16.038,4.41,0.0,0.0,0.0,0.0,1,1,0
10011,'1A',1,14,2,4.792,1.318,0.0,0.0,0.0,0.0,1,1,0
10012,'1A',1,14,2,11.177,3.074,0.0,0.0,0.0,0.0,1,1,0
10013,'10',1,14,2,5.346,1.47,0.0,0.0,0.0,0.0,1,1,0
10013,'20',1,14,2,5.346,1.47,0.0,0.0,0.0,0.0,1,1,0
10014,'1A',1,14,2,3.96,1.089,0.0,0.0,0.0,0.0,1,1,0
10015,'10',1,14,2,5.049,1.388,0.0,0.0,0.0,0.0,1,1,0
10015,'20',1,14,2,5.049,1.388,0.0,0.0,0.0,0.0,1,1,0
10016,'1A',1,14,2,4.257,1.171,0.0,0.0,0.0,0.0,1,1,0
10017,'10',1,14,2,4.455,1.225,0.0,0.0,0.0,0.0,1,1,0
10017,'20',1,14,2,4.455,1.225,0.0,0.0,0.0,0.0,1,1,0
10018,'1A',1,14,2,2.93,0.806,0.0,0.0,0.0,0.0,1,1,0
10019,'10',1,14,2,10.494,2.886,0.0,0.0,0.0,0.0,1,1,0
10019,'20',1,14,2,10.494,2.886,0.0,0.0,0.0,0.0,1,1,0
10020,'10',1,14,2,16.038,4.41,0.0,0.0,0.0,0.0,1,1,0
10020,'20',1,14,2,16.038,4.41,0.0,0.0,0.0,0.0,1,1,0
10021,'10',1,14,2,8.514,2.341,0.0,0.0,0.0,0.0,1,1,0
10021,'20',1,14,2,8.514,2.341,0.0,0.0,0.0,0.0,1,1,0
10022,'10',1,14,2,7.227,1.987,0.0,0.0,0.0,0.0,1,1,0
10022,'20',1,14,2,7.227,1.987,0.0,0.0,0.0,0.0,1,1,0
10023,'10',1,14,2,16.137,4.438,0.0,0.0,0.0,0.0,1,1,0
10023,'20',1,14,2,16.137,4.438,0.0,0.0,0.0,0.0,1,1,0
10024,'10',1,14,2,18.018,4.955,0.0,0.0,0.0,0.0,1,1,0
10024,'20',1,14,2,18.018,4.955,0.0,0.0,0.0,0.0,1,1,0
10025,'10',1,14,2,20.295,5.581,0.0,0.0,0.0,0.0,1,1,0
10025,'20',1,14,2,20.295,5.581,0.0,0.0,0.0,0.0,1,1,0
10026,'1A',1,14,2,10.108,2.78,0.0,0.0,0.0,0.0,1,1,0
10028,'1A',1,14,2,8.197,2.254,0.0,0.0,0.0,0.0,1,1,0
10029,'1A',1,14,2,1.366,0.376,0.0,0.0,0.0,0.0,1,1,0
10030,'1A',1,14,2,5.742,1.579,0.0,0.0,0.0,0.0,1,1,0
10031,'10',1,14,2,12.791,3.517,0.0,0.0,0.0,0.0,1,1,0
10031,'20',1,14,2,12.791,3.517,0.0,0.0,0.0,0.0,1,1,0
10032,'10',1,14,2,10.989,3.022,0.0,0.0,0.0,0.0,1,1,0
10032,'20',1,14,2,10.989,3.022,0.0,0.0,0.0,0.0,1,1,0
10033,'10',1,14,2,11.979,3.294,0.0,0.0,0.0,0.0,1,1,0
10035,'10',1,14,2,3.287,0.904,0.0,0.0,0.0,0.0,1,1,0
10035,'1A',1,14,2,47.193,12.978,0.0,0.0,0.0,0.0,1,1,0
10035,'20',1,14,2,3.287,0.904,0.0,0.0,0.0,0.0,1,1,0
10036,'1A',1,14,2,51.252,14.094,0.0,0.0,0.0,0.0,1,1,0
10037,'10',1,14,2,3.762,1.035,0.0,0.0,0.0,0.0,1,1,0
10037,'20',1,14,2,3.762,1.035,0.0,0.0,0.0,0.0,1,1,0
10038,'10',1,14,2,0.99,0.272,0.0,0.0,0.0,0.0,1,1,0
10038,'20',1,14,2,0.99,0.272,0.0,0.0,0.0,0.0,1,1,0
10039,'10',1,14,2,11.286,3.104,0.0,0.0,0.0,0.0,1,1,0
10039,'20',1,14,2,11.286,3.104,0.0,0.0,0.0,0.0,1,1,0
10040,'1A',1,14,2,6.356,1.748,0.0,0.0,0.0,0.0,1,1,0
10041,'10',1,14,2,10.088,2.774,0.0,0.0,0.0,0.0,1,1,0
10041,'20',1,14,2,10.088,2.774,0.0,0.0,0.0,0.0,1,1,0
10042,'10',1,14,2,7.425,2.042,0.0,0.0,0.0,0.0,1,1,0
10042,'20',1,14,2,7.425,2.042,0.0,0.0,0.0,0.0,1,1,0
10043,'1A',1,14,2,1.99,0.547,0.0,0.0,0.0,0.0,1,1,0
10044,'1A',1,14,2,7.376,2.028,0.0,0.0,0.0,0.0,1,1,0
10045,'10',1,14,2,9.504,2.614,0.0,0.0,0.0,0.0,1,1,0
10045,'20',1,14,2,9.504,2.614,0.0,0.0,0.0,0.0,1,1,0
10046,'10',1,14,2,47.124,12.959,0.0,0.0,0.0,0.0,1,1,0
10048,'10',1,14,2,11.385,3.131,0.0,0.0,0.0,0.0,1,1,0
10048,'20',1,14,2,11.385,3.131,0.0,0.0,0.0,0.0,1,1,0
10049,'10',1,14,2,4.851,1.334,0.0,0.0,0.0,0.0,1,1,0
10049,'20',1,14,2,4.851,1.334,0.0,0.0,0.0,0.0,1,1,0
10050,'10',1,14,2,11.89,3.27,0.0,0.0,0.0,0.0,1,1,0
10050,'20',1,14,2,11.89,3.27,0.0,0.0,0.0,0.0,1,1,0
10051,'1A',1,14,2,2.01,0.553,0.0,0.0,0.0,0.0,1,1,0
10052,'1A',1,14,2,4.297,1.182,0.0,0.0,0.0,0.0,1,1,0
10053,'10',1,14,2,1.257,0.346,0.0,0.0,0.0,0.0,1,1,0
10055,'10',1,14,2,14.058,3.866,0.0,0.0,0.0,0.0,1,1,0
10055,'20',1,14,2,14.058,3.866,0.0,0.0,0.0,0.0,1,1,0
10056,'10',1,14,2,22.869,6.289,0.0,0.0,0.0,0.0,1,1,0
10056,'20',1,14,2,22.869,6.289,0.0,0.0,0.0,0.0,1,1,0
10057,'10',1,14,2,10.791,2.968,0.0,0.0,0.0,0.0,1,1,0
10057,'20',1,14,2,10.791,2.968,0.0,0.0,0.0,0.0,1,1,0
10058,'1A',1,14,2,4.336,1.192,0.0,0.0,0.0,0.0,1,1,0
10059,'10',1,14,2,14.504,3.988,0.0,0.0,0.0,0.0,1,1,0
10059,'20',1,14,2,14.504,3.988,0.0,0.0,0.0,0.0,1,1,0
10060,'10',1,14,2,19.463,5.352,0.0,0.0,0.0,0.0,1,1,0
10060,'20',1,14,2,19.463,5.352,0.0,0.0,0.0,0.0,1,1,0
10061,'10',1,14,2,22.433,6.169,0.0,0.0,0.0,0.0,1,1,0
10061,'20',1,14,2,22.433,6.169,0.0,0.0,0.0,0.0,1,1,0
10062,'1A',1,14,2,2.237,0.615,0.0,0.0,0.0,0.0,1,1,0
10063,'1A',1,14,2,3.465,0.953,0.0,0.0,0.0,0.0,1,1,0
10064,'10',1,14,2,3.247,0.893,0.0,0.0,0.0,0.0,1,1,0
10064,'20',1,14,2,3.247,0.893,0.0,0.0,0.0,0.0,1,1,0
10065,'10',1,14,2,4.148,1.141,0.0,0.0,0.0,0.0,1,1,0
10065,'20',1,14,2,4.148,1.141,0.0,0.0,0.0,0.0,1,1,0
10066,'10',1,14,2,7.841,2.156,0.0,0.0,0.0,0.0,1,1,0
10066,'20',1,14,2,7.841,2.156,0.0,0.0,0.0,0.0,1,1,0
10067,'10',1,14,2,4.594,1.263,0.0,0.0,0.0,0.0,1,1,0
10067,'20',1,14,2,4.594,1.263,0.0,0.0,0.0,0.0,1,1,0
10068,'10',1,14,2,4.415,1.214,0.0,0.0,0.0,0.0,1,1,0
10068,'20',1,14,2,4.415,1.214,0.0,0.0,0.0,0.0,1,1,0
10069,'10',1,14,2,10.543,2.899,0.0,0.0,0.0,0.0,1,1,0
10069,'20',1,14,2,10.543,2.899,0.0,0.0,0.0,0.0,1,1,0
10070,'1A',1,14,2,7.118,1.957,0.0,0.0,0.0,0.0,1,1,0
10071,'10',1,14,2,13.603,3.741,0.0,0.0,0.0,0.0,1,1,0
10071,'20',1,14,2,13.603,3.741,0.0,0.0,0.0,0.0,1,1,0
10072,'1A',1,14,2,6.445,1.772,0.0,0.0,0.0,0.0,1,1,0
10073,'10',1,14,2,14.504,3.988,0.0,0.0,0.0,0.0,1,1,0
10073,'20',1,14,2,14.504,3.988,0.0,0.0,0.0,0.0,1,1,0
10074,'1A',1,14,2,5.168,1.421,0.0,0.0,0.0,0.0,1,1,0
10075,'1A',1,14,2,7.504,2.064,0.0,0.0,0.0,0.0,1,1,0
10076,'1A',1,14,2,3.782,1.04,0.0,0.0,0.0,0.0,1,1,0
10077,'1A',1,14,2,3.643,1.002,0.0,0.0,0.0,0.0,1,1,0
10078,'1A',1,14,2,10.474,2.88,0.0,0.0,0.0,0.0,1,1,0
10079,'1A',1,14,2,4.93,1.356,0.0,0.0,0.0,0.0,1,1,0
10080,'1A',1,14,2,1.683,0.463,0.0,0.0,0.0,0.0,1,1,0
10081,'1A',1,14,2,6.583,1.81,0.0,0.0,0.0,0.0,1,1,0
10082,'1A',1,14,2,8.841,2.431,0.0,0.0,0.0,0.0,1,1,0
10083,'10',1,14,2,8.019,2.205,0.0,0.0,0.0,0.0,1,1,0
10083,'20',1,14,2,8.019,2.205,0.0,0.0,0.0,0.0,1,1,0
10084,'10',1,14,2,5.247,1.443,0.0,0.0,0.0,0.0,1,1,0
10084,'20',1,14,2,5.247,1.443,0.0,0.0,0.0,0.0,1,1,0
10085,'10',1,14,2,40.986,11.271,0.0,0.0,0.0,0.0,1,1,0
10087,'1A',1,14,2,5.485,1.508,0.0,0.0,0.0,0.0,1,1,0
10088,'1A',1,14,2,3.732,1.026,0.0,0.0,0.0,0.0,1,1,0
10089,'1A',1,14,2,1.752,0.482,0.0,0.0,0.0,0.0,1,1,0
10090,'10',1,14,2,9.603,2.641,0.0,0.0,0.0,0.0,1,1,0
10090,'20',1,14,2,9.603,2.641,0.0,0.0,0.0,0.0,1,1,0
10091,'10',1,14,2,19.206,5.282,0.0,0.0,0.0,0.0,1,1,0
10091,'20',1,14,2,19.206,5.282,0.0,0.0,0.0,0.0,1,1,0
10092,'10',1,14,2,9.108,2.505,0.0,0.0,0.0,0.0,1,1,0
10092,'20',1,14,2,9.108,2.505,0.0,0.0,0.0,0.0,1,1,0
10093,'1A',1,14,2,18.691,5.14,0.0,0.0,0.0,0.0,1,1,0
10094,'1A',1,14,2,5.98,1.644,0.0,0.0,0.0,0.0,1,1,0
10095,'1A',1,14,2,4.188,1.152,0.0,0.0,0.0,0.0,1,1,0
10097,'1A',1,14,2,50.272,13.825,0.0,0.0,0.0,0.0,1,1,0
10098,'10',1,14,2,8.316,2.287,0.0,0.0,0.0,0.0,1,1,0
10098,'20',1,14,2,8.316,2.287,0.0,0.0,0.0,0.0,1,1,0
10099,'10',1,14,2,13.464,3.703,0.0,0.0,0.0,0.0,1,1,0
10099,'20',1,14,2,13.464,3.703,0.0,0.0,0.0,0.0,1,1,0
10100,'10',1,14,2,11.88,3.267,0.0,0.0,0.0,0.0,1,1,0
10100,'20',1,14,2,11.88,3.267,0.0,0.0,0.0,0.0,1,1,0
10101,'10',1,14,2,6.831,1.879,0.0,0.0,0.0,0.0,1,1,0
10101,'20',1,14,2,6.831,1.879,0.0,0.0,0.0,0.0,1,1,0
10102,'1A',1,14,2,8.722,2.399,0.0,0.0,0.0,0.0,1,1,0
10103,'10',1,14,2,3.564,0.98,0.0,0.0,0.0,0.0,1,1,0
10103,'20',1,14,2,3.564,0.98,0.0,0.0,0.0,0.0,1,1,0
10104,'1A',1,14,2,8.524,2.344,0.0,0.0,0.0,0.0,1,1,0
10105,'10',1,14,2,26.336,11.742,0.0,0.0,0.0,0.0,1,1,0
10105,'20',1,14,2,26.336,-7.2,0.0,0.0,0.0,0.0,1,1,0
10107,'10',1,14,2,10.494,2.886,0.0,0.0,0.0,0.0,1,1,0
10107,'20',1,14,2,10.494,2.886,0.0,0.0,0.0,0.0,1,1,0
10109,'10',1,14,2,9.405,2.586,0.0,0.0,0.0,0.0,1,1,0
10109,'20',1,14,2,9.405,2.586,0.0,0.0,0.0,0.0,1,1,0
10110,'1A',1,14,2,16.365,4.5,0.0,0.0,0.0,0.0,1,1,0
10111,'10',1,14,2,12.87,3.539,0.0,0.0,0.0,0.0,1,1,0
10111,'20',1,14,2,12.87,3.539,0.0,0.0,0.0,0.0,1,1,0
10112,'10',1,14,2,2.376,0.653,0.0,0.0,0.0,0.0,1,1,0
10112,'20',1,14,2,2.376,0.653,0.0,0.0,0.0,0.0,1,1,0
10113,'1A',1,14,2,0.891,0.245,0.0,0.0,0.0,0.0,1,1,0
10114,'10',1,14,2,9.405,2.586,0.0,0.0,0.0,0.0,1,1,0
10114,'20',1,14,2,9.405,2.586,0.0,0.0,0.0,0.0,1,1,0
10115,'10',1,14,2,10.494,2.886,0.0,0.0,0.0,0.0,1,1,0
10115,'20',1,14,2,10.494,2.886,0.0,0.0,0.0,0.0,1,1,0
10116,'1A',1,14,2,1.604,0.441,0.0,0.0,0.0,0.0,1,1,0
10117,'1A',1,14,2,12.563,3.455,0.0,0.0,0.0,0.0,1,1,0
10118,'10',1,14,2,10.296,2.831,0.0,0.0,0.0,0.0,1,1,0
10118,'20',1,14,2,10.296,2.831,0.0,0.0,0.0,0.0,1,1,0
10119,'1A',1,14,2,3.237,0.89,0.0,0.0,0.0,0.0,1,1,0
10120,'10',1,14,2,7.326,2.015,0.0,0.0,0.0,0.0,1,1,0
10120,'20',1,14,2,7.326,2.015,0.0,0.0,0.0,0.0,1,1,0
10121,'10',1,14,2,13.246,3.643,0.0,0.0,0.0,0.0,1,1,0
10121,'20',1,14,2,13.246,3.643,0.0,0.0,0.0,0.0,1,1,0
10122,'10',1,14,2,13.167,3.621,0.0,0.0,0.0,0.0,1,1,0
10122,'20',1,14,2,13.167,3.621,0.0,0.0,0.0,0.0,1,1,0
10123,'1A',1,14,2,5.683,1.563,0.0,0.0,0.0,0.0,1,1,0
10124,'10',1,14,2,2.376,0.653,0.0,0.0,0.0,0.0,1,1,0
10124,'20',1,14,2,2.376,0.653,0.0,0.0,0.0,0.0,1,1,0
10125,'1A',1,14,2,9.464,2.603,0.0,0.0,0.0,0.0,1,1,0
10126,'10',1,14,2,9.702,2.668,0.0,0.0,0.0,0.0,1,1,0
10126,'20',1,14,2,9.702,2.668,0.0,0.0,0.0,0.0,1,1,0
10128,'10',1,14,2,19.473,5.355,0.0,0.0,0.0,0.0,1,1,0
10128,'1A',1,14,2,43.431,11.944,0.0,0.0,0.0,0.0,1,1,0
10129,'10',1,14,2,9.405,2.586,0.0,0.0,0.0,0.0,1,1,0
10129,'20',1,14,2,9.405,2.586,0.0,0.0,0.0,0.0,1,1,0
10130,'1A',1,14,2,5.435,1.495,0.0,0.0,0.0,0.0,1,1,0
10131,'1A',1,14,2,1.931,0.531,0.0,0.0,0.0,0.0,1,1,0
10132,'10',1,14,2,3.515,0.966,0.0,0.0,0.0,0.0,1,1,0
10132,'20',1,14,2,3.515,0.966,0.0,0.0,0.0,0.0,1,1,0
10133,'10',1,14,2,7.425,2.042,0.0,0.0,0.0,0.0,1,1,0
10133,'20',1,14,2,7.425,2.042,0.0,0.0,0.0,0.0,1,1,0
10134,'10',1,14,2,4.95,1.361,0.0,0.0,0.0,0.0,1,1,0
10134,'20',1,14,2,4.95,1.361,0.0,0.0,0.0,0.0,1,1,0
...
0 / END OF LOAD DATA BEGIN FIXED SHUNT DATA
0 / END OF FIXED SHUNT DATA BEGIN GENERATOR DATA
2615,'G3',57.417,65.8,65.8,0.0,1.05,0,100.0,0.0,1.0,0.0,0.0,1.0,1,100.0,188.0,1.0,1,1.0,0,1.0,0,1.0,0,1.0,0,1.0
2616,'G2',169.498,59.5,59.5,0.0,1.05,0,100.0,0.0,1.0,0.0,0.0,1.0,1,100.0,170.0,1.0,1,1.0,0,1.0,0,1.0,0,1.0,0,1.0
2617,'G1',169.498,59.5,59.5,0.0,1.05,0,100.0,0.0,1.0,0.0,0.0,1.0,1,100.0,170.0,1.0,1,1.0,0,1.0,0,1.0,0,1.0,0,1.0
2621,'U1',8.0,11.45,11.45,-6.15,1.05,0,100.0,0.0,1.0,0.0,0.0,1.0,1,100.0,18.5,8.0,1,1.0,0,1.0,0,1.0,0,1.0,0,1.0
2621,'U2',8.0,11.45,11.45,-6.15,1.05,0,100.0,0.0,1.0,0.0,0.0,1.0,1,100.0,18.5,8.0,1,1.0,0,1.0,0,1.0,0,1.0,0,1.0
2934,'U1',83.752,27.6,27.6,-27.6,1.05,0,100.0,0.0,1.0,0.0,0.0,1.0,1,100.0,84.0,40.0,1,1.0,0,1.0,0,1.0,0,1.0,0,1.0
2937,'U1',39.882,24.8,24.8,-13.3,1.05,0,100.0,0.0,1.0,0.0,0.0,1.0,1,100.0,40.0,15.0,1,1.0,0,1.0,0,1.0,0,1.0,0,1.0
2937,'U2',55.835,34.7,34.7,-18.7,1.05,0,100.0,0.0,1.0,0.0,0.0,1.0,1,100.0,56.0,16.0,1,1.0,0,1.0,0,1.0,0,1.0,0,1.0
2938,'U1',54.339,11.548,33.8,-18.2,1.05,0,100.0,0.0,1.0,0.0,0.0,1.0,1,100.0,54.5,38.0,1,1.0,0,1.0,0,1.0,0,1.0,0,1.0
2938,'U2',54.339,11.548,33.8,-18.2,1.05,0,100.0,0.0,1.0,0.0,0.0,1.0,1,100.0,54.5,38.0,1,1.0,0,1.0,0,1.0,0,1.0,0,1.0
2938,'U3',54.339,11.548,33.8,-18.2,1.05,0,100.0,0.0,1.0,0.0,0.0,1.0,1,100.0,54.5,38.0,1,1.0,0,1.0,0,1.0,0,1.0,0,1.0
2940,'U1',9.042,8.379,12.1,-8.3,1.05,0,100.0,0.0,1.0,0.0,0.0,1.0,1,100.0,25.0,9.0,1,1.0,0,1.0,0,1.0,0,1.0,0,1.0
2940,'U2',9.042,8.379,12.1,-8.3,1.05,0,100.0,0.0,1.0,0.0,0.0,1.0,1,100.0,25.0,9.0,1,1.0,0,1.0,0,1.0,0,1.0,0,1.0
2940,'U3',8.051,8.379,14.5,-10.0,1.05,0,100.0,0.0,1.0,0.0,0.0,1.0,1,100.0,30.0,8.0,1,1.0,0,1.0,0,1.0,0,1.0,0,1.0
2943,'G2',233.888,87.59,179.1,-96.3,1.05,0,100.0,0.0,1.0,0.0,0.0,1.0,1,100.0,289.0,150.0,1,1.0,0,1.0,0,1.0,0,1.0,0,1.0
2946,'G1',233.888,87.59,179.1,-96.3,1.05,0,100.0,0.0,1.0,0.0,0.0,1.0,1,100.0,289.0,150.0,1,1.0,0,1.0,0,1.0,0,1.0,0,1.0
2947,'G2',233.888,78.631,179.1,-96.3,1.05,0,100.0,0.0,1.0,0.0,0.0,1.0,1,100.0,289.0,150.0,1,1.0,0,1.0,0,1.0,0,1.0,0,1.0
2948,'G1',233.888,78.631,179.1,-96.3,1.05,0,100.0,0.0,1.0,0.0,0.0,1.0,1,100.0,289.0,150.0,1,1.0,0,1.0,0,1.0,0,1.0,0,1.0
2951,'10',2.23,0.6,0.6,-0.6,1.05,0,100.0,0.0,1.0,0.0,0.0,1.0,1,100.0,2.23,0.87,1,1.0,0,1.0,0,1.0,0,1.0,0,1.0
2951,'11',2.23,0.6,0.6,-0.6,1.05,0,100.0,0.0,1.0,0.0,0.0,1.0,1,100.0,2.23,0.87,1,1.0,0,1.0,0,1.0,0,1.0,0,1.0
2951,'12',2.23,0.6,0.6,-0.6,1.05,0,100.0,0.0,1.0,0.0,0.0,1.0,1,100.0,2.23,0.87,1,1.0,0,1.0,0,1.0,0,1.0,0,1.0
2951,'13',2.23,0.6,0.6,-0.6,1.05,0,100.0,0.0,1.0,0.0,0.0,1.0,1,100.0,2.23,0.87,1,1.0,0,1.0,0,1.0,0,1.0,0,1.0
2951,'U1',2.23,0.6,0.6,-0.6,1.05,0,100.0,0.0,1.0,0.0,0.0,1.0,1,100.0,2.23,0.87,1,1.0,0,1.0,0,1.0,0,1.0,0,1.0
2951,'U2',2.23,0.6,0.6,-0.6,1.05,0,100.0,0.0,1.0,0.0,0.0,1.0,1,100.0,2.23,0.87,1,1.0,0,1.0,0,1.0,0,1.0,0,1.0
2951,'U3',2.23,0.6,0.6,-0.6,1.05,0,100.0,0.0,1.0,0.0,0.0,1.0,1,100.0,2.23,0.87,1,1.0,0,1.0,0,1.0,0,1.0,0,1.0
2951,'U4',2.23,0.6,0.6,-0.6,1.05,0,100.0,0.0,1.0,0.0,0.0,1.0,1,100.0,2.23,0.87,1,1.0,0,1.0,0,1.0,0,1.0,0,1.0
2951,'U5',2.23,0.6,0.6,-0.6,1.05,0,100.0,0.0,1.0,0.0,0.0,1.0,1,100.0,2.23,0.87,1,1.0,0,1.0,0,1.0,0,1.0,0,1.0
2951,'U6',2.23,0.6,0.6,-0.6,1.05,0,100.0,0.0,1.0,0.0,0.0,1.0,1,100.0,2.23,0.87,1,1.0,0,1.0,0,1.0,0,1.0,0,1.0
2951,'U7',2.23,0.6,0.6,-0.6,1.05,0,100.0,0.0,1.0,0.0,0.0,1.0,1,100.0,2.23,0.87,1,1.0,0,1.0,0,1.0,0,1.0,0,1.0
2951,'U8',2.23,0.6,0.6,-0.6,1.05,0,100.0,0.0,1.0,0.0,0.0,1.0,1,100.0,2.23,0.87,1,1.0,0,1.0,0,1.0,0,1.0,0,1.0
2951,'U9',2.23,0.6,0.6,-0.6,1.05,0,100.0,0.0,1.0,0.0,0.0,1.0,1,100.0,2.23,0.87,1,1.0,0,1.0,0,1.0,0,1.0,0,1.0
2953,'G1',533.918,159.369,259.4,-178.5,1.05,0,100.0,0.0,1.0,0.0,0.0,1.0,1,100.0,535.5,150.0,1,1.0,0,1.0,0,1.0,0,1.0,0,1.0
2954,'G2',340.99,144.148,256.5,-114.0,1.05,0,100.0,0.0,1.0,0.0,0.0,1.0,1,100.0,342.0,90.0,1,1.0,0,1.0,0,1.0,0,1.0,0,1.0
2957,'G1',0.0,0.0,105.4,-56.7,1.05,0,100.0,0.0,1.0,0.0,0.0,1.0,0,100.0,170.0,100.0,1,1.0,0,1.0,0,1.0,0,1.0,0,1.0
2957,'G2',0.0,0.0,105.4,-56.7,1.05,0,100.0,0.0,1.0,0.0,0.0,1.0,0,100.0,170.0,100.0,1,1.0,0,1.0,0,1.0,0,1.0,0,1.0
2957,'G3',120.43,111.537,158.0,-85.0,1.05,0,100.0,0.0,1.0,0.0,0.0,1.0,1,100.0,255.0,120.0,1,1.0,0,1.0,0,1.0,0,1.0,0,1.0
2960,'18',41.776,20.3,20.3,-14.0,1.05,0,100.0,0.0,1.0,0.0,0.0,1.0,1,100.0,41.9,18.6,1,1.0,0,1.0,0,1.0,0,1.0,0,1.0
2961,'23',16.94,14.7,14.7,-7.9,1.05,0,100.0,0.0,1.0,0.0,0.0,1.0,1,100.0,23.8,16.9,1,1.0,0,1.0,0,1.0,0,1.0,0,1.0
2962,'22',17.04,14.7,14.7,-7.9,1.05,0,100.0,0.0,1.0,0.0,0.0,1.0,1,100.0,23.8,17.0,1,1.0,0,1.0,0,1.0,0,1.0,0,1.0
2963,'21',17.34,14.7,14.7,-7.9,1.05,0,100.0,0.0,1.0,0.0,0.0,1.0,1,100.0,23.8,17.3,1,1.0,0,1.0,0,1.0,0,1.0,0,1.0
2964,'20',17.64,14.7,14.7,-7.9,1.05,0,100.0,0.0,1.0,0.0,0.0,1.0,1,100.0,23.8,17.6,1,1.0,0,1.0,0,1.0,0,1.0,0,1.0
2965,'19',41.776,20.3,20.3,-14.0,1.05,0,100.0,0.0,1.0,0.0,0.0,1.0,1,100.0,41.9,18.6,1,1.0,0,1.0,0,1.0,0,1.0,0,1.0
2966,'17',41.776,20.3,20.3,-14.0,1.05,0,100.0,0.0,1.0,0.0,0.0,1.0,1,100.0,41.9,18.6,1,1.0,0,1.0,0,1.0,0,1.0,0,1.0
2967,'16',41.776,20.3,20.3,-14.0,1.05,0,100.0,0.0,1.0,0.0,0.0,1.0,1,100.0,41.9,18.6,1,1.0,0,1.0,0,1.0,0,1.0,0,1.0
2968,'15',41.776,20.3,20.3,-14.0,1.05,0,100.0,0.0,1.0,0.0,0.0,1.0,1,100.0,41.9,18.6,1,1.0,0,1.0,0,1.0,0,1.0,0,1.0
2969,'14',41.776,20.3,20.3,-14.0,1.05,0,100.0,0.0,1.0,0.0,0.0,1.0,1,100.0,41.9,18.6,1,1.0,0,1.0,0,1.0,0,1.0,0,1.0
2970,'13',41.776,20.3,20.3,-14.0,1.05,0,100.0,0.0,1.0,0.0,0.0,1.0,1,100.0,41.9,18.6,1,1.0,0,1.0,0,1.0,0,1.0,0,1.0
2971,'G8',41.776,20.3,20.3,-14.0,1.05,0,100.0,0.0,1.0,0.0,0.0,1.0,1,100.0,41.9,18.6,1,1.0,0,1.0,0,1.0,0,1.0,0,1.0
2972,'G7',15.135,12.76,12.76,-6.86,1.05,0,100.0,0.0,1.0,0.0,0.0,1.0,1,100.0,20.59,15.1,1,1.0,0,1.0,0,1.0,0,1.0,0,1.0
2973,'G6',15.135,12.76,12.76,-6.86,1.05,0,100.0,0.0,1.0,0.0,0.0,1.0,1,100.0,20.59,15.1,1,1.0,0,1.0,0,1.0,0,1.0,0,1.0
2974,'G5',15.135,12.76,12.76,-6.86,1.05,0,100.0,0.0,1.0,0.0,0.0,1.0,1,100.0,20.59,15.1,1,1.0,0,1.0,0,1.0,0,1.0,0,1.0
2975,'G4',15.135,12.76,12.76,-6.86,1.05,0,100.0,0.0,1.0,0.0,0.0,1.0,1,100.0,20.59,15.1,1,1.0,0,1.0,0,1.0,0,1.0,0,1.0
2976,'G3',15.135,12.76,12.76,-6.86,1.05,0,100.0,0.0,1.0,0.0,0.0,1.0,1,100.0,20.59,15.1,1,1.0,0,1.0,0,1.0,0,1.0,0,1.0
2977,'G1',15.135,12.76,12.76,-6.86,1.05,0,100.0,0.0,1.0,0.0,0.0,1.0,1,100.0,20.59,15.1,1,1.0,0,1.0,0,1.0,0,1.0,0,1.0
2978,'10',41.776,20.3,20.3,-14.0,1.05,0,100.0,0.0,1.0,0.0,0.0,1.0,1,100.0,41.9,18.6,1,1.0,0,1.0,0,1.0,0,1.0,0,1.0
2979,'11',41.776,20.3,20.3,-14.0,1.05,0,100.0,0.0,1.0,0.0,0.0,1.0,1,100.0,41.9,18.6,1,1.0,0,1.0,0,1.0,0,1.0,0,1.0
2982,'12',41.776,20.3,20.3,-14.0,1.05,0,100.0,0.0,1.0,0.0,0.0,1.0,1,100.0,41.9,18.6,1,1.0,0,1.0,0,1.0,0,1.0,0,1.0
2983,'G9',41.776,20.3,20.3,-14.0,1.05,0,100.0,0.0,1.0,0.0,0.0,1.0,1,100.0,41.9,18.6,1,1.0,0,1.0,0,1.0,0,1.0,0,1.0
2985,'G2',15.135,12.76,12.76,-6.86,1.05,0,100.0,0.0,1.0,0.0,0.0,1.0,1,100.0,20.59,15.1,1,1.0,0,1.0,0,1.0,0,1.0,0,1.0
2986,'G3',75.653,135.45,135.45,0.0,1.05,0,100.0,0.0,1.0,0.0,0.0,1.0,1,100.0,387.0,75.0,1,1.0,0,1.0,0,1.0,0,1.0,0,1.0
2987,'G1',60.304,63.0,63.0,0.0,1.05,0,100.0,0.0,1.0,0.0,0.0,1.0,1,100.0,180.0,60.0,1,1.0,0,1.0,0,1.0,0,1.0,0,1.0
2990,'G2',75.634,131.6,131.6,0.0,1.05,0,100.0,0.0,1.0,0.0,0.0,1.0,1,100.0,376.0,75.0,1,1.0,0,1.0,0,1.0,0,1.0,0,1.0
2992,'G4',75.653,135.45,135.45,0.0,1.05,0,100.0,0.0,1.0,0.0,0.0,1.0,1,100.0,387.0,75.0,1,1.0,0,1.0,0,1.0,0,1.0,0,1.0
2994,'G6',215.706,22.282,185.9,-100.0,1.05,0,100.0,0.0,1.0,0.0,0.0,1.0,1,100.0,300.0,194.0,1,1.0,0,1.0,0,1.0,0,1.0,0,1.0
2995,'G4',215.706,22.282,185.9,-100.0,1.05,0,100.0,0.0,1.0,0.0,0.0,1.0,1,100.0,300.0,194.0,1,1.0,0,1.0,0,1.0,0,1.0,0,1.0
2996,'G3',140.584,20.52,87.4,-47.0,1.05,0,100.0,0.0,1.0,0.0,0.0,1.0,1,100.0,141.0,90.0,1,1.0,0,1.0,0,1.0,0,1.0,0,1.0
2997,'G2',140.584,20.52,87.4,-47.0,1.05,0,100.0,0.0,1.0,0.0,0.0,1.0,1,100.0,141.0,90.0,1,1.0,0,1.0,0,1.0,0,1.0,0,1.0
2998,'G1',140.584,20.52,87.4,-47.0,1.05,0,100.0,0.0,1.0,0.0,0.0,1.0,1,100.0,141.0,90.0,1,1.0,0,1.0,0,1.0,0,1.0,0,1.0
3001,'G5',215.706,22.282,185.9,-100.0,1.05,0,100.0,0.0,1.0,0.0,0.0,1.0,1,100.0,300.0,194.0,1,1.0,0,1.0,0,1.0,0,1.0,0,1.0
3003,'U1',66.2,32.1,32.1,-22.1,1.05,0,100.0,0.0,1.0,0.0,0.0,1.0,1,100.0,66.2,48.8,1,1.0,0,1.0,0,1.0,0,1.0,0,1.0
3003,'U2',47.7,23.1,23.1,-15.9,1.05,0,100.0,0.0,1.0,0.0,0.0,1.0,1,100.0,47.7,34.3,1,1.0,0,1.0,0,1.0,0,1.0,0,1.0
3006,'G2',299.114,36.949,145.3,-100.0,1.05,0,100.0,0.0,1.0,0.0,0.0,1.0,1,100.0,300.0,220.0,1,1.0,0,1.0,0,1.0,0,1.0,0,1.0
3007,'G1',299.114,36.949,145.3,-100.0,1.05,0,100.0,0.0,1.0,0.0,0.0,1.0,1,100.0,300.0,220.0,1,1.0,0,1.0,0,1.0,0,1.0,0,1.0
3010,'G1',128.32,32.3,32.3,-32.3,1.05,0,100.0,0.0,1.0,0.0,0.0,1.0,1,100.0,128.7,85.0,1,1.0,0,1.0,0,1.0,0,1.0,0,1.0
3010,'G2',128.32,32.3,32.3,-32.3,1.05,0,100.0,0.0,1.0,0.0,0.0,1.0,1,100.0,128.7,85.0,1,1.0,0,1.0,0,1.0,0,1.0,0,1.0
3010,'G3',128.32,32.3,32.3,-32.3,1.05,0,100.0,0.0,1.0,0.0,0.0,1.0,1,100.0,128.7,30.0,1,1.0,0,1.0,0,1.0,0,1.0,0,1.0
3013,'U1',13.56,10.2,10.2,-4.53,1.05,0,100.0,0.0,1.0,0.0,0.0,1.0,1,100.0,13.6,4.0,1,1.0,0,1.0,0,1.0,0,1.0,0,1.0
3013,'U2',13.56,10.2,10.2,-4.53,1.05,0,100.0,0.0,1.0,0.0,0.0,1.0,1,100.0,13.6,4.0,1,1.0,0,1.0,0,1.0,0,1.0,0,1.0
3013,'U3',13.56,10.2,10.2,-4.53,1.05,0,100.0,0.0,1.0,0.0,0.0,1.0,1,100.0,13.6,4.0,1,1.0,0,1.0,0,1.0,0,1.0,0,1.0
3015,'U1',3.015,4.663,6.75,-3.0,1.05,0,100.0,0.0,1.0,0.0,0.0,1.0,1,100.0,9.0,3.0,1,1.0,0,1.0,0,1.0,0,1.0,0,1.0
3015,'U2',3.015,4.663,6.75,-3.0,1.05,0,100.0,0.0,1.0,0.0,0.0,1.0,1,100.0,9.0,3.0,1,1.0,0,1.0,0,1.0,0,1.0,0,1.0
3015,'U3',3.015,4.663,6.75,-3.0,1.05,0,100.0,0.0,1.0,0.0,0.0,1.0,1,100.0,9.0,3.0,1,1.0,0,1.0,0,1.0,0,1.0,0,1.0
3015,'U4',3.015,4.663,6.75,-3.0,1.05,0,100.0,0.0,1.0,0.0,0.0,1.0,1,100.0,9.0,3.0,1,1.0,0,1.0,0,1.0,0,1.0,0,1.0
3018,'U1',235.888,69.872,216.8,-96.3,1.05,0,100.0,0.0,1.0,0.0,0.0,1.0,1,100.0,289.0,155.0,1,1.0,0,1.0,0,1.0,0,1.0,0,1.0
3021,'G6',33.6,20.9,20.9,-11.2,1.05,0,100.0,0.0,1.0,0.0,0.0,1.0,1,100.0,33.7,15.0,1,1.0,0,1.0,0,1.0,0,1.0,0,1.0
3022,'G5',33.6,20.9,20.9,-11.2,1.05,0,100.0,0.0,1.0,0.0,0.0,1.0,1,100.0,33.7,15.0,1,1.0,0,1.0,0,1.0,0,1.0,0,1.0
3023,'G4',59.823,37.2,37.2,-20.0,1.05,0,100.0,0.0,1.0,0.0,0.0,1.0,1,100.0,60.0,35.0,1,1.0,0,1.0,0,1.0,0,1.0,0,1.0
3024,'G3',59.823,37.2,37.2,-20.0,1.05,0,100.0,0.0,1.0,0.0,0.0,1.0,1,100.0,60.0,35.0,1,1.0,0,1.0,0,1.0,0,1.0,0,1.0
3025,'G2',89.535,56.7,56.7,-29.95,1.05,0,100.0,0.0,1.0,0.0,0.0,1.0,1,100.0,89.8,37.5,1,1.0,0,1.0,0,1.0,0,1.0,0,1.0
3026,'G1',89.535,56.7,56.7,-29.95,1.05,0,100.0,0.0,1.0,0.0,0.0,1.0,1,100.0,89.8,37.5,1,1.0,0,1.0,0,1.0,0,1.0,0,1.0
3028,'G7',35.894,22.3,22.3,-12.0,1.05,0,100.0,0.0,1.0,0.0,0.0,1.0,1,100.0,36.0,5.0,1,1.0,0,1.0,0,1.0,0,1.0,0,1.0
3030,'G4',249.262,99.58,100.0,-50.0,1.05,0,100.0,0.0,1.0,0.0,0.0,1.0,1,100.0,250.0,1.0,1,1.0,0,1.0,0,1.0,0,1.0,0,1.0
3031,'G3',249.262,99.58,100.0,-50.0,1.05,0,100.0,0.0,1.0,0.0,0.0,1.0,1,100.0,250.0,1.0,1,1.0,0,1.0,0,1.0,0,1.0,0,1.0
3032,'G2',249.262,99.58,100.0,-50.0,1.05,0,100.0,0.0,1.0,0.0,0.0,1.0,1,100.0,250.0,1.0,1,1.0,0,1.0,0,1.0,0,1.0,0,1.0
3033,'G1',249.262,99.58,100.0,-50.0,1.05,0,100.0,0.0,1.0,0.0,0.0,1.0,1,100.0,250.0,1.0,1,1.0,0,1.0,0,1.0,0,1.0,0,1.0
3036,'G2',189.248,248.751,300.8,-207.0,1.05,0,100.0,0.0,1.0,0.0,0.0,1.0,1,100.0,621.0,80.0,1,1.0,0,1.0,0,1.0,0,1.0,0,1.0
3037,'G1',189.084,248.746,300.8,-207.0,1.05,0,100.0,0.0,1.0,0.0,0.0,1.0,1,100.0,621.0,100.0,1,1.0,0,1.0,0,1.0,0,1.0,0,1.0
3041,'G3',199.107,81.449,116.7,-80.3,1.05,0,100.0,0.0,1.0,0.0,0.0,1.0,1,100.0,241.0,100.0,1,1.0,0,1.0,0,1.0,0,1.0,0,1.0
3042,'G2',199.107,81.449,116.7,-80.3,1.05,0,100.0,0.0,1.0,0.0,0.0,1.0,1,100.0,241.0,100.0,1,1.0,0,1.0,0,1.0,0,1.0,0,1.0
3043,'G1',50.802,79.613,230.3,-158.5,1.05,0,100.0,0.0,1.0,0.0,0.0,1.0,1,100.0,475.5,50.0,1,1.0,0,1.0,0,1.0,0,1.0,0,1.0
3044,'G4',351.084,88.086,211.2,-211.2,1.05,0,100.0,0.0,1.0,0.0,0.0,1.0,1,100.0,642.6,350.0,1,1.0,0,1.0,0,1.0,0,1.0,0,1.0
3049,'G3',169.498,99.236,105.4,-56.7,1.05,0,100.0,0.0,1.0,0.0,0.0,1.0,1,100.0,170.0,90.1,1,1.0,0,1.0,0,1.0,0,1.0,0,1.0
3050,'G2',169.498,99.236,105.4,-56.7,1.05,0,100.0,0.0,1.0,0.0,0.0,1.0,1,100.0,170.0,90.1,1,1.0,0,1.0,0,1.0,0,1.0,0,1.0
3051,'G1',179.468,99.47,111.6,-60.0,1.05,0,100.0,0.0,1.0,0.0,0.0,1.0,1,100.0,180.0,95.4,1,1.0,0,1.0,0,1.0,0,1.0,0,1.0
3055,'G2',58.955,98.223,101.0,-54.3,1.05,0,100.0,0.0,1.0,0.0,0.0,1.0,1,100.0,163.0,58.68,1,1.0,0,1.0,0,1.0,0,1.0,0,1.0
3056,'G1',0.0,0.0,247.9,-133.3,1.05,0,100.0,0.0,1.0,0.0,0.0,1.0,0,100.0,400.0,130.0,1,1.0,0,1.0,0,1.0,0,1.0,0,1.0
3060,'U1',40.0,14.0,14.0,0.0,1.05,0,100.0,0.0,1.0,0.0,0.0,1.0,1,100.0,40.0,35.0,1,1.0,0,1.0,0,1.0,0,1.0,0,1.0
3060,'U2',40.0,14.0,14.0,0.0,1.05,0,100.0,0.0,1.0,0.0,0.0,1.0,1,100.0,40.0,35.0,1,1.0,0,1.0,0,1.0,0,1.0,0,1.0
3060,'U3',121.0,42.35,42.35,0.0,1.05,0,100.0,0.0,1.0,0.0,0.0,1.0,1,100.0,121.0,90.0,1,1.0,0,1.0,0,1.0,0,1.0,0,1.0
3060,'U4',121.0,42.35,42.35,0.0,1.05,0,100.0,0.0,1.0,0.0,0.0,1.0,1,100.0,121.0,90.0,1,1.0,0,1.0,0,1.0,0,1.0,0,1.0
3063,'U1',10.121,23.878,44.6,-24.0,1.05,0,100.0,0.0,1.0,0.0,0.0,1.0,1,100.0,72.0,10.0,1,1.0,0,1.0,0,1.0,0,1.0,0,1.0
3063,'U2',110.315,23.878,115.8,-62.3,1.05,0,100.0,0.0,1.0,0.0,0.0,1.0,1,100.0,186.8,110.0,1,1.0,0,1.0,0,1.0,0,1.0,0,1.0
3065,'NJ',100.017,48.778,9900.0,-9900.0,1.02,0,100.0,0.0,1.0,0.0,0.0,1.0,1,100.0,1000.0,0.0,1,1.0,0,1.0,0,1.0,0,1.0,0,1.0
3066,'U1',10.27,7.012,7.73,-3.43,1.05,0,100.0,0.0,1.0,0.0,0.0,1.0,1,100.0,10.3,8.0,1,1.0,0,1.0,0,1.0,0,1.0,0,1.0
3066,'U2',10.27,7.012,7.73,-3.43,1.05,0,100.0,0.0,1.0,0.0,0.0,1.0,1,100.0,10.3,8.0,1,1.0,0,1.0,0,1.0,0,1.0,0,1.0
3066,'U3',10.27,7.012,7.73,-3.43,1.05,0,100.0,0.0,1.0,0.0,0.0,1.0,1,100.0,10.3,8.0,1,1.0,0,1.0,0,1.0,0,1.0,0,1.0
3066,'U4',10.27,7.012,7.73,-3.43,1.05,0,100.0,0.0,1.0,0.0,0.0,1.0,1,100.0,10.3,8.0,1,1.0,0,1.0,0,1.0,0,1.0,0,1.0
3066,'U5',10.27,7.012,7.73,-3.43,1.05,0,100.0,0.0,1.0,0.0,0.0,1.0,1,100.0,10.3,8.0,1,1.0,0,1.0,0,1.0,0,1.0,0,1.0
3066,'U6',10.27,7.012,7.73,-3.43,1.05,0,100.0,0.0,1.0,0.0,0.0,1.0,1,100.0,10.3,8.0,1,1.0,0,1.0,0,1.0,0,1.0,0,1.0
3069,'U1',152.249,50.2,50.2,-50.2,1.05,0,100.0,0.0,1.0,0.0,0.0,1.0,1,100.0,152.7,80.0,1,1.0,0,1.0,0,1.0,0,1.0,0,1.0
3069,'U2',195.621,55.726,64.5,-64.5,1.05,0,100.0,0.0,1.0,0.0,0.0,1.0,1,100.0,196.2,125.0,1,1.0,0,1.0,0,1.0,0,1.0,0,1.0
3072,'G2',200.987,114.125,240.3,-240.3,1.05,0,100.0,0.0,1.0,0.0,0.0,1.0,1,100.0,585.0,200.0,1,1.0,0,1.0,0,1.0,0,1.0,0,1.0
3073,'G1',170.979,113.344,190.6,-190.6,1.05,0,100.0,0.0,1.0,0.0,0.0,1.0,1,100.0,580.0,170.0,1,1.0,0,1.0,0,1.0,0,1.0,0,1.0
3076,'U1',43.97,12.285,21.4,-14.7,1.05,0,100.0,0.0,1.0,0.0,0.0,1.0,1,100.0,44.1,25.0,1,1.0,0,1.0,0,1.0,0,1.0,0,1.0
3076,'U2',33.999,12.285,16.5,-11.4,1.05,0,100.0,0.0,1.0,0.0,0.0,1.0,1,100.0,34.1,5.0,1,1.0,0,1.0,0,1.0,0,1.0,0,1.0
3078,'U1',25.0,12.1,12.1,-8.3,1.05,0,100.0,0.0,1.0,0.0,0.0,1.0,1,100.0,25.0,10.0,1,1.0,0,1.0,0,1.0,0,1.0,0,1.0
3078,'U2',48.8,23.702,30.2,-16.3,1.05,0,100.0,0.0,1.0,0.0,0.0,1.0,1,100.0,48.8,16.0,1,1.0,0,1.0,0,1.0,0,1.0,0,1.0
3078,'U3',48.8,23.702,30.2,-16.3,1.05,0,100.0,0.0,1.0,0.0,0.0,1.0,1,100.0,48.8,16.0,1,1.0,0,1.0,0,1.0,0,1.0,0,1.0
3080,'U1',46.861,22.8,22.8,-15.7,1.05,0,100.0,0.0,1.0,0.0,0.0,1.0,1,100.0,47.0,40.0,1,1.0,0,1.0,0,1.0,0,1.0,0,1.0
3080,'U2',24.926,12.1,12.1,-8.3,1.05,0,100.0,0.0,1.0,0.0,0.0,1.0,1,100.0,25.0,10.0,1,1.0,0,1.0,0,1.0,0,1.0,0,1.0
3082,'U1',0.0,0.0,94.3,-55.7,1.05,0,100.0,0.0,1.0,0.0,0.0,1.0,0,100.0,167.2,50.0,1,1.0,0,1.0,0,1.0,0,1.0,0,1.0
3082,'U2',0.0,0.0,96.2,-51.8,1.05,0,100.0,0.0,1.0,0.0,0.0,1.0,0,100.0,155.3,50.0,1,1.0,0,1.0,0,1.0,0,1.0,0,1.0
3084,'U1',65.5,31.7,31.7,-21.8,1.05,0,100.0,0.0,1.0,0.0,0.0,1.0,1,100.0,65.5,45.0,1,1.0,0,1.0,0,1.0,0,1.0,0,1.0
3084,'U2',37.2,18.0,18.0,-12.4,1.05,0,100.0,0.0,1.0,0.0,0.0,1.0,1,100.0,37.2,25.0,1,1.0,0,1.0,0,1.0,0,1.0,0,1.0
3086,'U1',14.158,6.9,6.9,-4.75,1.05,0,100.0,0.0,1.0,0.0,0.0,1.0,1,100.0,14.2,0.2,1,1.0,0,1.0,0,1.0,0,1.0,0,1.0
3086,'U2',14.158,6.9,6.9,-4.75,1.05,0,100.0,0.0,1.0,0.0,0.0,1.0,1,100.0,14.2,0.2,1,1.0,0,1.0,0,1.0,0,1.0,0,1.0
3089,'G1',2.49,109.842,309.05,0.0,1.05,0,100.0,0.0,1.0,0.0,0.0,1.0,1,100.0,883.0,1.0,1,1.0,0,1.0,0,1.0,0,1.0,0,1.0
3094,'U1',94.719,32.716,46.0,-31.7,1.05,0,100.0,0.0,1.0,0.0,0.0,1.0,1,100.0,95.0,70.0,1,1.0,0,1.0,0,1.0,0,1.0,0,1.0
3094,'U2',22.932,11.1,11.1,-7.7,1.05,0,100.0,0.0,1.0,0.0,0.0,1.0,1,100.0,23.0,3.0,1,1.0,0,1.0,0,1.0,0,1.0,0,1.0
3094,'U3',23.048,17.5,17.5,-9.4,1.05,0,100.0,0.0,1.0,0.0,0.0,1.0,1,100.0,28.3,23.0,1,1.0,0,1.0,0,1.0,0,1.0,0,1.0
3095,'U1',12.0,38.6,38.6,-38.6,1.05,0,100.0,0.0,1.0,0.0,0.0,1.0,1,100.0,12.0,0.0,1,1.0,0,1.0,0,1.0,0,1.0,1,1.0
3098,'U1',19.634,11.841,12.4,-6.7,1.05,0,100.0,0.0,1.0,0.0,0.0,1.0,1,100.0,20.0,19.6,1,1.0,0,1.0,0,1.0,0,1.0,0,1.0
3098,'U2',19.134,11.841,12.4,-6.7,1.05,0,100.0,0.0,1.0,0.0,0.0,1.0,1,100.0,20.0,19.1,1,1.0,0,1.0,0,1.0,0,1.0,0,1.0
3098,'U3',19.142,11.841,15.5,-8.3,1.05,0,100.0,0.0,1.0,0.0,0.0,1.0,1,100.0,25.0,19.1,1,1.0,0,1.0,0,1.0,0,1.0,0,1.0
3098,'U4',19.142,11.841,15.5,-8.3,1.05,0,100.0,0.0,1.0,0.0,0.0,1.0,1,100.0,25.0,19.1,1,1.0,0,1.0,0,1.0,0,1.0,0,1.0
3098,'U5',18.742,11.841,15.5,-8.3,1.05,0,100.0,0.0,1.0,0.0,0.0,1.0,1,100.0,25.0,18.7,1,1.0,0,1.0,0,1.0,0,1.0,0,1.0
3103,'U1',25.0,12.1,12.1,-8.3,1.05,0,100.0,0.0,1.0,0.0,0.0,1.0,1,100.0,25.0,3.0,1,1.0,0,1.0,0,1.0,0,1.0,0,1.0
3103,'U2',25.0,12.1,12.1,-8.3,1.05,0,100.0,0.0,1.0,0.0,0.0,1.0,1,100.0,25.0,3.0,1,1.0,0,1.0,0,1.0,0,1.0,0,1.0
3105,'U1',44.867,21.8,21.8,-15.0,1.05,0,100.0,0.0,1.0,0.0,0.0,1.0,1,100.0,45.0,22.0,1,1.0,0,1.0,0,1.0,0,1.0,0,1.0
3105,'U2',22.076,31.707,33.8,-15.0,1.05,0,100.0,0.0,1.0,0.0,0.0,1.0,1,100.0,45.0,22.0,1,1.0,0,1.0,0,1.0,0,1.0,0,1.0
3107,'G4',20.124,45.6,45.6,-24.5,1.05,0,100.0,0.0,1.0,0.0,0.0,1.0,1,100.0,73.5,20.0,1,1.0,0,1.0,0,1.0,0,1.0,0,1.0
3108,'G3',20.121,44.6,44.6,-24.0,1.05,0,100.0,0.0,1.0,0.0,0.0,1.0,1,100.0,72.0,20.0,1,1.0,0,1.0,0,1.0,0,1.0,0,1.0
3109,'G2',78.344,67.826,148.4,-79.8,1.05,0,100.0,0.0,1.0,0.0,0.0,1.0,1,100.0,239.4,60.0,1,1.0,0,1.0,0,1.0,0,1.0,0,1.0
3110,'G1',40.248,67.872,91.2,-49.0,1.05,0,100.0,0.0,1.0,0.0,0.0,1.0,1,100.0,147.1,40.0,1,1.0,0,1.0,0,1.0,0,1.0,0,1.0
3115,'U1',16.086,13.333,31.6,-17.0,1.05,0,100.0,0.0,1.0,0.0,0.0,1.0,1,100.0,51.0,16.0,1,1.0,0,1.0,0,1.0,0,1.0,0,1.0
3115,'U2',16.086,13.333,31.6,-17.0,1.05,0,100.0,0.0,1.0,0.0,0.0,1.0,1,100.0,51.0,16.0,1,1.0,0,1.0,0,1.0,0,1.0,0,1.0
3115,'U3',16.086,13.333,31.6,-17.0,1.05,0,100.0,0.0,1.0,0.0,0.0,1.0,1,100.0,51.0,16.0,1,1.0,0,1.0,0,1.0,0,1.0,0,1.0
3115,'U4',16.086,13.333,31.6,-17.0,1.05,0,100.0,0.0,1.0,0.0,0.0,1.0,1,100.0,51.0,16.0,1,1.0,0,1.0,0,1.0,0,1.0,0,1.0
3117,'U1',199.353,64.629,123.9,-66.7,1.05,0,100.0,0.0,1.0,0.0,0.0,1.0,1,100.0,200.0,108.0,1,1.0,0,1.0,0,1.0,0,1.0,0,1.0
3120,'PA',100.0,62.419,9900.0,-9900.0,1.02,0,100.0,0.0,1.0,0.0,0.0,1.0,1,100.0,100.0,0.0,1,1.0,0,1.0,0,1.0,0,1.0,0,1.0
3121,'U1',217.6,134.9,134.9,-72.5,1.05,0,100.0,0.0,1.0,0.0,0.0,1.0,1,100.0,217.6,85.0,1,1.0,0,1.0,0,1.0,0,1.0,0,1.0
3121,'U2',0.0,0.0,134.9,-72.5,1.05,0,100.0,0.0,1.0,0.0,0.0,1.0,0,100.0,217.6,85.0,1,1.0,0,1.0,0,1.0,0,1.0,0,1.0
3121,'U3',0.0,0.0,72.0,-32.0,1.05,0,100.0,0.0,1.0,0.0,0.0,1.0,0,100.0,96.0,35.0,1,1.0,0,1.0,0,1.0,0,1.0,0,1.0
3121,'U4',0.0,0.0,72.0,-32.0,1.05,0,100.0,0.0,1.0,0.0,0.0,1.0,0,100.0,96.0,35.0,1,1.0,0,1.0,0,1.0,0,1.0,0,1.0
3123,'10',0.0,0.0,15.32,-8.64,1.05,0,100.0,0.0,1.0,0.0,0.0,1.0,0,100.0,25.93,18.49,1,1.0,0,1.0,0,1.0,0,1.0,0,1.0
3123,'11',0.0,0.0,15.32,-8.64,1.05,0,100.0,0.0,1.0,0.0,0.0,1.0,0,100.0,25.93,18.49,1,1.0,0,1.0,0,1.0,0,1.0,0,1.0
3123,'12',0.0,0.0,15.32,-8.64,1.05,0,100.0,0.0,1.0,0.0,0.0,1.0,0,100.0,25.93,18.49,1,1.0,0,1.0,0,1.0,0,1.0,0,1.0
3123,'13',0.0,0.0,15.32,-8.64,1.05,0,100.0,0.0,1.0,0.0,0.0,1.0,0,100.0,25.93,18.49,1,1.0,0,1.0,0,1.0,0,1.0,0,1.0
3123,'14',0.0,0.0,15.32,-8.64,1.05,0,100.0,0.0,1.0,0.0,0.0,1.0,0,100.0,25.93,18.49,1,1.0,0,1.0,0,1.0,0,1.0,0,1.0
3123,'G1',187.445,75.153,116.5,-62.7,1.05,0,100.0,0.0,1.0,0.0,0.0,1.0,1,100.0,188.0,15.0,1,1.0,0,1.0,0,1.0,0,1.0,0,1.0
3123,'G2',187.445,75.153,116.5,-62.7,1.05,0,100.0,0.0,1.0,0.0,0.0,1.0,1,100.0,188.0,15.0,1,1.0,0,1.0,0,1.0,0,1.0,0,1.0
3123,'G3',0.0,0.0,15.32,-8.64,1.05,0,100.0,0.0,1.0,0.0,0.0,1.0,0,100.0,25.93,18.49,1,1.0,0,1.0,0,1.0,0,1.0,0,1.0
3123,'G4',0.0,0.0,15.32,-8.64,1.05,0,100.0,0.0,1.0,0.0,0.0,1.0,0,100.0,25.93,18.49,1,1.0,0,1.0,0,1.0,0,1.0,0,1.0
3123,'G5',0.0,0.0,15.32,-8.64,1.05,0,100.0,0.0,1.0,0.0,0.0,1.0,0,100.0,25.93,18.49,1,1.0,0,1.0,0,1.0,0,1.0,0,1.0
3123,'G6',0.0,0.0,15.32,-8.64,1.05,0,100.0,0.0,1.0,0.0,0.0,1.0,0,100.0,25.93,18.49,1,1.0,0,1.0,0,1.0,0,1.0,0,1.0
3123,'G7',0.0,0.0,15.32,-8.64,1.05,0,100.0,0.0,1.0,0.0,0.0,1.0,0,100.0,25.93,18.49,1,1.0,0,1.0,0,1.0,0,1.0,0,1.0
3123,'G8',0.0,0.0,15.32,-8.64,1.05,0,100.0,0.0,1.0,0.0,0.0,1.0,0,100.0,25.93,18.49,1,1.0,0,1.0,0,1.0,0,1.0,0,1.0
3123,'G9',0.0,0.0,15.32,-8.64,1.05,0,100.0,0.0,1.0,0.0,0.0,1.0,0,100.0,25.93,18.49,1,1.0,0,1.0,0,1.0,0,1.0,0,1.0
3126,'PA',0.0,101.78,9900.0,-9900.0,1.03,0,100.0,0.0,1.0,0.0,0.0,1.0,1,100.0,100.0,0.0,1,1.0,0,1.0,0,1.0,0,1.0,0,1.0
3130,'U1',199.465,72.973,150.0,-66.7,1.05,0,100.0,0.0,1.0,0.0,0.0,1.0,1,100.0,200.0,65.0,1,1.0,0,1.0,0,1.0,0,1.0,0,1.0
3130,'U2',155.782,72.973,117.2,-52.1,1.05,0,100.0,0.0,1.0,0.0,0.0,1.0,1,100.0,156.2,45.0,1,1.0,0,1.0,0,1.0,0,1.0,0,1.0
3130,'U3',0.0,0.0,111.6,-60.0,1.05,0,100.0,0.0,1.0,0.0,0.0,1.0,0,100.0,180.0,110.0,1,1.0,0,1.0,0,1.0,0,1.0,0,1.0
3130,'U4',0.0,0.0,111.6,-60.0,1.05,0,100.0,0.0,1.0,0.0,0.0,1.0,0,100.0,180.0,110.0,1,1.0,0,1.0,0,1.0,0,1.0,0,1.0
3134,'G3',199.779,45.275,183.3,-98.6,1.05,0,100.0,0.0,1.0,0.0,0.0,1.0,1,100.0,295.7,135.0,1,1.0,0,1.0,0,1.0,0,1.0,0,1.0
3135,'G2',178.471,44.724,110.9,-59.7,1.05,0,100.0,0.0,1.0,0.0,0.0,1.0,1,100.0,179.0,90.0,1,1.0,0,1.0,0,1.0,0,1.0,0,1.0
3136,'G1',178.471,44.724,110.9,-59.7,1.05,0,100.0,0.0,1.0,0.0,0.0,1.0,1,100.0,179.0,90.0,1,1.0,0,1.0,0,1.0,0,1.0,0,1.0
3139,'U1',55.272,22.922,70.4,-37.9,1.05,0,100.0,0.0,1.0,0.0,0.0,1.0,1,100.0,113.6,30.0,1,1.0,0,1.0,0,1.0,0,1.0,0,1.0
3139,'U2',59.823,22.922,37.2,-20.0,1.05,0,100.0,0.0,1.0,0.0,0.0,1.0,1,100.0,60.0,25.0,1,1.0,0,1.0,0,1.0,0,1.0,0,1.0
3139,'U3',59.823,22.922,37.2,-20.0,1.05,0,100.0,0.0,1.0,0.0,0.0,1.0,1,100.0,60.0,25.0,1,1.0,0,1.0,0,1.0,0,1.0,0,1.0
3141,'G2',185.052,115.0,115.0,-61.9,1.05,0,100.0,0.0,1.0,0.0,0.0,1.0,1,100.0,185.6,105.0,1,1.0,0,1.0,0,1.0,0,1.0,0,1.0
3142,'G1',233.608,113.5,113.5,-78.1,1.05,0,100.0,0.0,1.0,0.0,0.0,1.0,1,100.0,234.3,70.0,1,1.0,0,1.0,0,1.0,0,1.0,0,1.0
3143,'G3',185.052,115.0,115.0,-61.9,1.05,0,100.0,0.0,1.0,0.0,0.0,1.0,1,100.0,185.6,105.0,1,1.0,0,1.0,0,1.0,0,1.0,0,1.0
3146,'U1',20.076,16.529,27.9,-15.0,1.05,0,100.0,0.0,1.0,0.0,0.0,1.0,1,100.0,45.0,20.0,1,1.0,0,1.0,0,1.0,0,1.0,0,1.0
3146,'U2',20.076,16.529,27.9,-15.0,1.05,0,100.0,0.0,1.0,0.0,0.0,1.0,1,100.0,45.0,20.0,1,1.0,0,1.0,0,1.0,0,1.0,0,1.0
3146,'U3',20.076,16.529,27.9,-15.0,1.05,0,100.0,0.0,1.0,0.0,0.0,1.0,1,100.0,45.0,20.0,1,1.0,0,1.0,0,1.0,0,1.0,0,1.0
3148,'U1',31.208,10.95,10.95,0.0,1.05,0,100.0,0.0,1.0,0.0,0.0,1.0,1,100.0,31.3,6.0,1,1.0,0,1.0,0,1.0,0,1.0,0,1.0
3151,'U1',23.936,18.0,18.0,-8.0,1.05,0,100.0,0.0,1.0,0.0,0.0,1.0,1,100.0,24.0,1.0,1,1.0,0,1.0,0,1.0,0,1.0,0,1.0
3153,'G2',237.49,101.007,172.7,-92.9,1.05,0,100.0,0.0,1.0,0.0,0.0,1.0,1,100.0,278.6,140.0,1,1.0,0,1.0,0,1.0,0,1.0,0,1.0
3154,'G1',237.49,101.007,172.7,-92.9,1.05,0,100.0,0.0,1.0,0.0,0.0,1.0,1,100.0,278.6,140.0,1,1.0,0,1.0,0,1.0,0,1.0,0,1.0
3155,'G3',243.532,101.235,195.2,-105.0,1.05,0,100.0,0.0,1.0,0.0,0.0,1.0,1,100.0,315.0,75.0,1,1.0,0,1.0,0,1.0,0,1.0,0,1.0
...
0 / END OF GENERATOR DATA BEGIN BRANCH DATA
1,4,'L1',0.000512,0.00384,0.00101,159.0,166.9,174.9,0.0,0.0,0.0,0.0,1,1,0.96,1,1.0,0,1.0,0,1.0,0,1.0
2,86,'L1',0.00126,0.02205,0.2362,1046.0,1098.3,1150.6,0.0,0.0,0.0,0.0,1,1,35.01,1,1.0,0,1.0,0,1.0,0,1.0
3,4,'L1',0.00173733,0.01303,0.00334,175.0,183.7,192.5,0.0,0.0,0.0,0.0,1,1,3.22,1,1.0,0,1.0,0,1.0,0,1.0
3,49,'L1',0.00418667,0.0314,0.00983,142.0,149.1,156.2,0.0,0.0,0.0,0.0,1,1,8.49,1,1.0,0,1.0,0,1.0,0,1.0
5,8,'L1',0.000353333,0.00265,0.0006,142.0,149.1,156.2,0.0,0.0,0.0,0.0,1,1,0.61,1,1.0,0,1.0,0,1.0,0,1.0
6,11,'L1',0.00147733,0.01108,0.0025,142.0,149.1,156.2,0.0,0.0,0.0,0.0,1,1,2.55,1,1.0,0,1.0,0,1.0,0,1.0
7,8,'L1',0.000414667,0.00311,0.00078,243.0,243.0,243.0,0.0,0.0,0.0,0.0,1,1,0.76,1,1.0,0,1.0,0,1.0,0,1.0
7,8,'L2',0.000414667,0.00311,0.00078,243.0,243.0,243.0,0.0,0.0,0.0,0.0,1,1,0.76,1,1.0,0,1.0,0,1.0,0,1.0
7,10,'L1',0.00148667,0.01115,0.00272,243.0,243.0,243.0,0.0,0.0,0.0,0.0,1,1,2.69,1,1.0,0,1.0,0,1.0,0,1.0
7,10,'L2',0.00148667,0.01115,0.00272,243.0,243.0,243.0,0.0,0.0,0.0,0.0,1,1,2.69,1,1.0,0,1.0,0,1.0,0,1.0
8,9,'L1',0.00207733,0.01558,0.00351,159.0,166.9,174.9,0.0,0.0,0.0,0.0,1,1,3.6,1,1.0,0,1.0,0,1.0,0,1.0
9,12,'L1',0.00176267,0.01322,0.00329,142.0,149.1,156.2,0.0,0.0,0.0,0.0,1,1,3.2,1,1.0,0,1.0,0,1.0,0,1.0
11,16,'L1',0.00257333,0.0193,0.00414,142.0,149.1,156.2,0.0,0.0,0.0,0.0,1,1,4.34,1,1.0,0,1.0,0,1.0,0,1.0
12,13,'L1',0.00160933,0.01207,0.00273,118.0,123.9,129.8,0.0,0.0,0.0,0.0,1,1,2.81,1,1.0,0,1.0,0,1.0,0,1.0
12,14,'L1',0.00255867,0.01919,0.00432,128.0,134.4,140.8,0.0,0.0,0.0,0.0,1,1,4.42,1,1.0,0,1.0,0,1.0,0,1.0
14,42,'L1',0.00496533,0.03724,0.00816,128.0,134.4,140.8,0.0,0.0,0.0,0.0,1,1,8.46,1,1.0,0,1.0,0,1.0,0,1.0
15,16,'L1',0.00394667,0.0296,0.00746,159.0,166.9,174.9,0.0,0.0,0.0,0.0,1,1,7.23,1,1.0,0,1.0,0,1.0,0,1.0
17,19,'L1',0.0228613,0.17146,0.04168,118.0,123.9,129.8,0.0,0.0,0.0,0.0,1,1,41.16,1,1.0,0,1.0,0,1.0,0,1.0
21,22,'L1',0.0164293,0.12322,0.0154,144.0,144.0,144.0,0.0,0.0,0.0,0.0,1,1,22.0,1,1.0,0,1.0,0,1.0,0,1.0
22,110,'L1',0.0172347,0.12926,0.03121,128.0,134.4,140.8,0.0,0.0,0.0,0.0,1,1,30.83,1,1.0,0,1.0,0,1.0,0,1.0
23,28,'L1',0.000658667,0.00494,0.00134,205.0,215.2,225.5,0.0,0.0,0.0,0.0,1,1,1.25,1,1.0,0,1.0,0,1.0,0,1.0
23,29,'L1',0.00166133,0.01246,0.00339,205.0,215.2,225.5,0.0,0.0,0.0,0.0,1,1,3.17,1,1.0,0,1.0,0,1.0,0,1.0
24,28,'L1',0.000610667,0.00458,0.00107,118.0,123.9,129.8,0.0,0.0,0.0,0.0,1,1,1.08,1,1.0,0,1.0,0,1.0,0,1.0
25,26,'L1',0.000902667,0.00677,0.00174,128.0,134.4,140.8,0.0,0.0,0.0,0.0,1,1,1.67,1,1.0,0,1.0,0,1.0,0,1.0
26,28,'L1',0.000638667,0.00479,0.00115,142.0,149.1,156.2,0.0,0.0,0.0,0.0,1,1,1.14,1,1.0,0,1.0,0,1.0,0,1.0
27,30,'L1',0.00011,0.0019,0.01955,1046.0,1098.3,1150.6,0.0,0.0,0.0,0.0,1,1,2.96,1,1.0,0,1.0,0,1.0,0,1.0
29,39,'L1',0.00221867,0.01664,0.0038,175.0,183.7,192.5,0.0,0.0,0.0,0.0,1,1,3.89,1,1.0,0,1.0,0,1.0,0,1.0
31,32,'L1',0.001652,0.01239,0.00283,175.0,183.7,192.5,0.0,0.0,0.0,0.0,1,1,2.89,1,1.0,0,1.0,0,1.0,0,1.0
32,33,'L1',0.000886667,0.00665,0.0016,219.0,229.9,240.9,0.0,0.0,0.0,0.0,1,1,1.59,1,1.0,0,1.0,0,1.0,0,1.0
35,53,'L1',0.00245067,0.01838,0.00435,159.0,166.9,174.9,0.0,0.0,0.0,0.0,1,1,4.36,1,1.0,0,1.0,0,1.0,0,1.0
36,37,'L1',0.000522667,0.00392,0.00099,212.0,212.0,212.0,0.0,0.0,0.0,0.0,1,1,0.96,1,1.0,0,1.0,0,1.0,0,1.0
37,39,'L1',0.000989333,0.00742,0.00187,159.0,166.9,174.9,0.0,0.0,0.0,0.0,1,1,1.82,1,1.0,0,1.0,0,1.0,0,1.0
38,36,'L1',0.00130667,0.0098,0.00123,144.0,144.0,144.0,0.0,0.0,0.0,0.0,1,1,1.77,1,1.0,0,1.0,0,1.0,0,1.0
40,41,'L1',0.001028,0.00771,0.00192,142.0,149.1,156.2,0.0,0.0,0.0,0.0,1,1,1.87,1,1.0,0,1.0,0,1.0,0,1.0
41,50,'L1',0.00468133,0.03511,0.00904,128.0,134.4,140.8,0.0,0.0,0.0,0.0,1,1,8.63,1,1.0,0,1.0,0,1.0,0,1.0
41,138,'L1',0.00276133,0.02071,0.00485,118.0,123.9,129.8,0.0,0.0,0.0,0.0,1,1,4.89,1,1.0,0,1.0,0,1.0,0,1.0
42,51,'L1',0.00243,0.02018,0.00789,284.0,298.2,312.4,0.0,0.0,0.0,0.0,1,1,6.11,1,1.0,0,1.0,0,1.0,0,1.0
43,44,'L1',0.00145733,0.01093,0.00256,118.0,123.9,129.8,0.0,0.0,0.0,0.0,1,1,2.58,1,1.0,0,1.0,0,1.0,0,1.0
43,45,'L1',0.00207067,0.01553,0.00364,118.0,123.9,129.8,0.0,0.0,0.0,0.0,1,1,3.67,1,1.0,0,1.0,0,1.0,0,1.0
44,49,'L1',0.003116,0.02337,0.0053,118.0,123.9,129.8,0.0,0.0,0.0,0.0,1,1,5.42,1,1.0,0,1.0,0,1.0,0,1.0
46,48,'L1',0.00143333,0.01075,0.00259,128.0,134.4,140.8,0.0,0.0,0.0,0.0,1,1,2.57,1,1.0,0,1.0,0,1.0,0,1.0
46,52,'L1',0.00249,0.02161,0.00776,284.0,298.2,312.4,0.0,0.0,0.0,0.0,1,1,6.26,1,1.0,0,1.0,0,1.0,0,1.0
46,117,'L1',0.00243733,0.01828,0.00486,175.0,183.7,192.5,0.0,0.0,0.0,0.0,1,1,4.61,1,1.0,0,1.0,0,1.0,0,1.0
46,118,'L1',0.002204,0.01653,0.00423,175.0,183.7,192.5,0.0,0.0,0.0,0.0,1,1,4.1,1,1.0,0,1.0,0,1.0,0,1.0
47,127,'L1',0.00312,0.04326,0.4339,868.0,911.4,954.8,0.0,0.0,0.0,0.0,1,1,66.72,1,1.0,0,1.0,0,1.0,0,1.0
51,52,'L1',0.00128,0.01193,0.00369,284.0,298.2,312.4,0.0,0.0,0.0,0.0,1,1,3.22,1,1.0,0,1.0,0,1.0,0,1.0
53,136,'L1',0.00299333,0.02245,0.00556,175.0,183.7,192.5,0.0,0.0,0.0,0.0,1,1,5.46,1,1.0,0,1.0,0,1.0,0,1.0
54,407,'L1',0.01999,0.14099,0.24207,366.0,384.3,402.6,0.0,0.0,0.0,0.0,1,1,89.89,1,1.0,0,1.0,0,1.0,0,1.0
56,59,'L1',0.015948,0.11961,0.03081,128.0,134.4,140.8,0.0,0.0,0.0,0.0,1,1,29.49,1,1.0,0,1.0,0,1.0,0,1.0
57,58,'L1',0.00330533,0.02479,0.00517,128.0,134.4,140.8,0.0,0.0,0.0,0.0,1,1,5.51,1,1.0,0,1.0,0,1.0,0,1.0
58,101,'L1',0.00871467,0.06536,0.01364,128.0,134.4,140.8,0.0,0.0,0.0,0.0,1,1,14.51,1,1.0,0,1.0,0,1.0,0,1.0
61,74,'L1',0.00490267,0.03677,0.00855,128.0,134.4,140.8,0.0,0.0,0.0,0.0,1,1,8.63,1,1.0,0,1.0,0,1.0,0,1.0
62,74,'L1',0.00370267,0.02777,0.00612,118.0,123.9,129.8,0.0,0.0,0.0,0.0,1,1,6.35,1,1.0,0,1.0,0,1.0,0,1.0
62,131,'L1',0.00693067,0.05198,0.01178,118.0,123.9,129.8,0.0,0.0,0.0,0.0,1,1,12.07,1,1.0,0,1.0,0,1.0,0,1.0
63,64,'L1',0.00298667,0.0224,0.00524,118.0,123.9,129.8,0.0,0.0,0.0,0.0,1,1,5.27,1,1.0,0,1.0,0,1.0,0,1.0
63,121,'L1',0.00455467,0.03416,0.00885,122.0,122.0,122.0,0.0,0.0,0.0,0.0,1,1,8.47,1,1.0,0,1.0,0,1.0,0,1.0
64,65,'L1',0.0027,0.02025,0.00492,118.0,123.9,129.8,0.0,0.0,0.0,0.0,1,1,4.87,1,1.0,0,1.0,0,1.0,0,1.0
65,66,'L1',0.00160133,0.01201,0.00265,118.0,123.9,129.8,0.0,0.0,0.0,0.0,1,1,2.75,1,1.0,0,1.0,0,1.0,0,1.0
67,68,'L1',0.000949333,0.00712,0.00161,118.0,123.9,129.8,0.0,0.0,0.0,0.0,1,1,1.65,1,1.0,0,1.0,0,1.0,0,1.0
67,125,'L1',0.002756,0.02067,0.00484,118.0,123.9,129.8,0.0,0.0,0.0,0.0,1,1,4.87,1,1.0,0,1.0,0,1.0,0,1.0
68,69,'L1',0.001312,0.00984,0.00205,128.0,134.4,140.8,0.0,0.0,0.0,0.0,1,1,2.19,1,1.0,0,1.0,0,1.0,0,1.0
70,72,'L1',0.00204533,0.01534,0.00395,128.0,134.4,140.8,0.0,0.0,0.0,0.0,1,1,3.77,1,1.0,0,1.0,0,1.0,0,1.0
70,130,'L1',0.003984,0.02988,0.00716,142.0,149.1,156.2,0.0,0.0,0.0,0.0,1,1,7.09,1,1.0,0,1.0,0,1.0,0,1.0
71,73,'L1',0.00252,0.0189,0.00476,159.0,166.9,174.9,0.0,0.0,0.0,0.0,1,1,4.62,1,1.0,0,1.0,0,1.0,0,1.0
71,75,'L1',0.00332,0.02612,0.00764,250.0,262.5,275.0,0.0,0.0,0.0,0.0,1,1,6.87,1,1.0,0,1.0,0,1.0,0,1.0
71,128,'L1',0.0180347,0.13526,0.03411,159.0,166.9,174.9,0.0,0.0,0.0,0.0,1,1,33.04,1,1.0,0,1.0,0,1.0,0,1.0
72,73,'L1',0.00177467,0.01331,0.00342,128.0,134.4,140.8,0.0,0.0,0.0,0.0,1,1,3.27,1,1.0,0,1.0,0,1.0,0,1.0
75,76,'L1',0.003464,0.02598,0.00655,159.0,166.9,174.9,0.0,0.0,0.0,0.0,1,1,6.35,1,1.0,0,1.0,0,1.0,0,1.0
75,79,'L1',0.00665867,0.04994,0.01258,159.0,166.9,174.9,0.0,0.0,0.0,0.0,1,1,12.19,1,1.0,0,1.0,0,1.0,0,1.0
76,77,'L1',0.00333067,0.02498,0.00699,159.0,166.9,174.9,0.0,0.0,0.0,0.0,1,1,6.44,1,1.0,0,1.0,0,1.0,0,1.0
77,78,'L1',0.003004,0.02253,0.00568,159.0,166.9,174.9,0.0,0.0,0.0,0.0,1,1,5.51,1,1.0,0,1.0,0,1.0,0,1.0
78,117,'L1',0.00509867,0.03824,0.00861,159.0,166.9,174.9,0.0,0.0,0.0,0.0,1,1,8.84,1,1.0,0,1.0,0,1.0,0,1.0
79,80,'L1',0.00250667,0.0188,0.00474,159.0,166.9,174.9,0.0,0.0,0.0,0.0,1,1,4.6,1,1.0,0,1.0,0,1.0,0,1.0
80,81,'L1',0.002336,0.01752,0.00427,159.0,166.9,174.9,0.0,0.0,0.0,0.0,1,1,4.21,1,1.0,0,1.0,0,1.0,0,1.0
81,82,'L1',0.00204133,0.01531,0.004,159.0,166.9,174.9,0.0,0.0,0.0,0.0,1,1,3.8,1,1.0,0,1.0,0,1.0,0,1.0
82,118,'L1',0.00518933,0.03892,0.01018,159.0,166.9,174.9,0.0,0.0,0.0,0.0,1,1,9.7,1,1.0,0,1.0,0,1.0,0,1.0
83,84,'L1',0.0106987,0.08024,0.01879,118.0,123.9,129.8,0.0,0.0,0.0,0.0,1,1,18.93,1,1.0,0,1.0,0,1.0,0,1.0
83,777,'L1',0.015096,0.11322,0.02549,159.0,166.9,174.9,0.0,0.0,0.0,0.0,1,1,26.22,1,1.0,0,1.0,0,1.0,0,1.0
85,84,'L1',0.00933333,0.07,0.016,142.0,149.1,156.2,0.0,0.0,0.0,0.0,1,1,10.79,1,1.0,0,1.0,0,1.0,0,1.0
85,91,'L1',0.0103307,0.07748,0.02062,175.0,183.7,192.5,0.0,0.0,0.0,0.0,1,1,19.51,1,1.0,0,1.0,0,1.0,0,1.0
87,88,'L1',0.00474267,0.03557,0.00763,142.0,149.1,156.2,0.0,0.0,0.0,0.0,1,1,8.0,1,1.0,0,1.0,0,1.0,0,1.0
88,89,'L1',0.00462133,0.03466,0.00907,159.0,166.9,174.9,0.0,0.0,0.0,0.0,1,1,8.63,1,1.0,0,1.0,0,1.0,0,1.0
89,90,'L1',0.00314133,0.02356,0.00593,159.0,166.9,174.9,0.0,0.0,0.0,0.0,1,1,5.75,1,1.0,0,1.0,0,1.0,0,1.0
90,91,'L1',0.00322533,0.02419,0.00633,159.0,166.9,174.9,0.0,0.0,0.0,0.0,1,1,6.03,1,1.0,0,1.0,0,1.0,0,1.0
92,93,'L1',0.0009,0.00675,0.0017,277.0,277.0,277.0,0.0,0.0,0.0,0.0,1,1,1.65,1,1.0,0,1.0,0,1.0,0,1.0
92,94,'L1',0.000465333,0.00349,0.00088,177.0,211.0,211.0,0.0,0.0,0.0,0.0,1,1,0.85,1,1.0,0,1.0,0,1.0,0,1.0
93,111,'L1',0.001464,0.01098,0.00247,142.0,149.1,156.2,0.0,0.0,0.0,0.0,1,1,2.53,1,1.0,0,1.0,0,1.0,0,1.0
94,95,'L1',0.000412,0.00309,0.00078,177.0,211.0,211.0,0.0,0.0,0.0,0.0,1,1,0.76,1,1.0,0,1.0,0,1.0,0,1.0
95,97,'L1',0.000813333,0.0061,0.00154,177.0,211.0,211.0,0.0,0.0,0.0,0.0,1,1,1.49,1,1.0,0,1.0,0,1.0,0,1.0
97,98,'L1',0.003024,0.02268,0.00601,230.0,241.5,253.0,0.0,0.0,0.0,0.0,1,1,5.67,1,1.0,0,1.0,0,1.0,0,1.0
97,102,'L1',0.00250533,0.01879,0.00499,142.0,149.1,156.2,0.0,0.0,0.0,0.0,1,1,4.7,1,1.0,0,1.0,0,1.0,0,1.0
98,121,'L1',0.014508,0.10881,0.02849,159.0,166.9,174.9,0.0,0.0,0.0,0.0,1,1,27.14,1,1.0,0,1.0,0,1.0,0,1.0
99,100,'L1',0.00429467,0.03221,0.00844,219.0,229.9,240.9,0.0,0.0,0.0,0.0,1,1,8.0,1,1.0,0,1.0,0,1.0,0,1.0
102,103,'L1',0.00361867,0.02714,0.00594,128.0,134.4,140.8,0.0,0.0,0.0,0.0,1,1,6.19,1,1.0,0,1.0,0,1.0,0,1.0
103,104,'L1',0.00468533,0.03514,0.00865,128.0,134.4,140.8,0.0,0.0,0.0,0.0,1,1,8.47,1,1.0,0,1.0,0,1.0,0,1.0
104,132,'L1',0.00524667,0.03935,0.00892,118.0,123.9,129.8,0.0,0.0,0.0,0.0,1,1,9.14,1,1.0,0,1.0,0,1.0,0,1.0
105,112,'L1',0.00715867,0.05369,0.01257,118.0,123.9,129.8,0.0,0.0,0.0,0.0,1,1,12.68,1,1.0,0,1.0,0,1.0,0,1.0
105,114,'L1',0.00580667,0.04355,0.01019,118.0,123.9,129.8,0.0,0.0,0.0,0.0,1,1,10.26,1,1.0,0,1.0,0,1.0,0,1.0
105,119,'L1',0.00431867,0.03239,0.0073,128.0,134.4,140.8,0.0,0.0,0.0,0.0,1,1,7.48,1,1.0,0,1.0,0,1.0,0,1.0
106,112,'L1',0.003656,0.02742,0.00604,118.0,123.9,129.8,0.0,0.0,0.0,0.0,1,1,6.29,1,1.0,0,1.0,0,1.0,0,1.0
108,113,'L1',0.0173707,0.13028,0.02955,118.0,123.9,129.8,0.0,0.0,0.0,0.0,1,1,30.31,1,1.0,0,1.0,0,1.0,0,1.0
108,3288,'L1',0.0130453,0.09784,0.01223,144.0,144.0,144.0,0.0,0.0,0.0,0.0,1,1,17.42,1,1.0,0,1.0,0,1.0,0,1.0
113,3288,'L1',0.0269427,0.20207,0.02526,144.0,144.0,144.0,0.0,0.0,0.0,0.0,1,1,36.04,1,1.0,0,1.0,0,1.0,0,1.0
115,116,'L1',0.00559467,0.04196,0.01018,118.0,123.9,129.8,0.0,0.0,0.0,0.0,1,1,10.06,1,1.0,0,1.0,0,1.0,0,1.0
119,120,'L1',0.00502267,0.03767,0.00914,118.0,123.9,129.8,0.0,0.0,0.0,0.0,1,1,9.04,1,1.0,0,1.0,0,1.0,0,1.0
120,123,'L1',0.00515333,0.03865,0.00905,118.0,123.9,129.8,0.0,0.0,0.0,0.0,1,1,9.12,1,1.0,0,1.0,0,1.0,0,1.0
122,123,'L1',0.00559733,0.04198,0.00525,144.0,144.0,144.0,0.0,0.0,0.0,0.0,1,1,7.53,1,1.0,0,1.0,0,1.0,0,1.0
122,126,'L1',0.00404267,0.03032,0.00736,118.0,123.9,129.8,0.0,0.0,0.0,0.0,1,1,7.27,1,1.0,0,1.0,0,1.0,0,1.0
123,124,'L1',0.001972,0.01479,0.00451,118.0,123.9,129.8,0.0,0.0,0.0,0.0,1,1,3.97,1,1.0,0,1.0,0,1.0,0,1.0
126,124,'L1',0.00540933,0.04057,0.00507,144.0,144.0,144.0,0.0,0.0,0.0,0.0,1,1,7.28,1,1.0,0,1.0,0,1.0,0,1.0
128,129,'L1',0.00532933,0.03997,0.01068,159.0,166.9,174.9,0.0,0.0,0.0,0.0,1,1,10.05,1,1.0,0,1.0,0,1.0,0,1.0
129,130,'L1',0.00439067,0.03293,0.00742,142.0,149.1,156.2,0.0,0.0,0.0,0.0,1,1,7.58,1,1.0,0,1.0,0,1.0,0,1.0
131,132,'L1',0.00856933,0.06427,0.01505,118.0,123.9,129.8,0.0,0.0,0.0,0.0,1,1,15.14,1,1.0,0,1.0,0,1.0,0,1.0
134,3202,'L1',0.0155667,0.11675,0.01459,144.0,144.0,144.0,0.0,0.0,0.0,0.0,1,1,20.84,1,1.0,0,1.0,0,1.0,0,1.0
136,137,'L1',0.001208,0.00906,0.00263,185.0,194.2,203.5,0.0,0.0,0.0,0.0,1,1,2.37,1,1.0,0,1.0,0,1.0,0,1.0
137,142,'L1',0.00159467,0.01196,0.00282,193.0,202.6,212.3,0.0,0.0,0.0,0.0,1,1,2.83,1,1.0,0,1.0,0,1.0,0,1.0
137,143,'L1',0.000776,0.00582,0.00147,159.0,166.9,174.9,0.0,0.0,0.0,0.0,1,1,1.42,1,1.0,0,1.0,0,1.0,0,1.0
...